OSM-X-076
  StarDrop          2D                              

 29 32  0  0  0  0  0  0  0  0999 V2000
    5.2010    6.2946    0.0000 F   0  0  0  0  0  0  0  0  0  0  0  0
    4.8961    5.3422    0.0000 C   0  0  0  0  0  0  0  0  0  0  0  0
    5.5685    4.6019    0.0000 F   0  0  0  0  0  0  0  0  0  0  0  0
    3.9189    5.1300    0.0000 O   0  0  0  0  0  0  0  0  0  0  0  0
    3.6140    4.1776    0.0000 C   0  0  0  0  0  0  0  0  0  0  0  0
    2.6371    3.9640    0.0000 C   0  0  0  0  0  0  0  0  0  0  0  0
    2.3281    3.0129    0.0000 C   0  0  0  0  0  0  0  0  0  0  0  0
    4.2888    3.4325    0.0000 C   0  0  0  0  0  0  0  0  0  0  0  0
    3.9866    2.4739    0.0000 C   0  0  0  0  0  0  0  0  0  0  0  0
    3.0029    2.2678    0.0000 C   0  0  0  0  0  0  0  0  0  0  0  0
    2.6938    1.3168    0.0000 C   0  0  0  0  0  0  0  0  0  0  0  0
    3.2858    0.5022    0.0000 N   0  0  0  0  0  0  0  0  0  0  0  0
    2.6938   -0.3126    0.0000 N   0  0  0  0  0  0  0  0  0  0  0  0
    1.7360   -0.0013    0.0000 C   0  0  0  0  0  0  0  0  0  0  0  0
    0.8680   -0.4979    0.0000 C   0  0  0  0  0  0  0  0  0  0  0  0
    0.0000    0.0000    0.0000 N   0  0  0  0  0  0  0  0  0  0  0  0
   -0.0000    1.0058    0.0000 C   0  0  0  0  0  0  0  0  0  0  0  0
   -0.8675    1.5033    0.0000 N   0  0  0  0  0  0  0  0  0  0  0  0
   -1.7320    1.0008    0.0000 C   0  0  0  0  0  0  0  0  0  0  0  0
   -2.5995    1.4982    0.0000 C   0  0  0  0  0  0  0  0  0  0  0  0
   -3.4641    0.9957    0.0000 C   0  0  0  0  0  0  0  0  0  0  0  0
   -3.4582   -0.0095    0.0000 C   0  0  0  0  0  0  0  0  0  0  0  0
   -4.3228   -0.5120    0.0000 C   0  0  0  0  0  0  0  0  0  0  0  0
   -5.1932   -0.0196    0.0000 C   0  0  0  0  0  0  0  0  0  0  0  0
   -6.0555   -0.5260    0.0000 F   0  0  0  0  0  0  0  0  0  0  0  0
   -5.1991    0.9855    0.0000 C   0  0  0  0  0  0  0  0  0  0  0  0
   -4.3345    1.4983    0.0000 C   0  0  0  0  0  0  0  0  0  0  0  0
    0.8680    1.5137    0.0000 C   0  0  0  0  0  0  0  0  0  0  0  0
    1.7360    1.0058    0.0000 N   0  0  0  0  0  0  0  0  0  0  0  0
  1  2  1  0  0  0  0
  2  3  1  0  0  0  0
  2  4  1  0  0  0  0
  4  5  1  0  0  0  0
  5  6  1  0  0  0  0
  6  7  2  0  0  0  0
  7 10  1  0  0  0  0
  5  8  2  0  0  0  0
  8  9  1  0  0  0  0
  9 10  2  0  0  0  0
 10 11  1  0  0  0  0
 11 29  1  0  0  0  0
 11 12  2  0  0  0  0
 12 13  1  0  0  0  0
 13 14  2  0  0  0  0
 14 29  1  0  0  0  0
 14 15  1  0  0  0  0
 15 16  2  0  0  0  0
 16 17  1  0  0  0  0
 17 18  1  0  0  0  0
 18 19  1  0  0  0  0
 19 20  1  0  0  0  0
 20 21  1  0  0  0  0
 21 27  1  0  0  0  0
 21 22  2  0  0  0  0
 22 23  1  0  0  0  0
 23 24  2  0  0  0  0
 24 25  1  0  0  0  0
 24 26  1  0  0  0  0
 26 27  2  0  0  0  0
 17 28  2  0  0  0  0
 28 29  1  0  0  0  0
M  END
>  <MMV ID>
MMV671927

>  <Blood Stage EC50 (uM)>
10

>  <Blood Stage pEC50>
5

>  <PfATP4>
No

$$$$
OSM-X-089
  StarDrop          2D                              

 25 27  0  0  0  0  0  0  0  0999 V2000
    5.2010    6.2946    0.0000 F   0  0  0  0  0  0  0  0  0  0  0  0
    4.8961    5.3422    0.0000 C   0  0  0  0  0  0  0  0  0  0  0  0
    5.5685    4.6019    0.0000 F   0  0  0  0  0  0  0  0  0  0  0  0
    3.9189    5.1300    0.0000 O   0  0  0  0  0  0  0  0  0  0  0  0
    3.6140    4.1776    0.0000 C   0  0  0  0  0  0  0  0  0  0  0  0
    2.6371    3.9640    0.0000 C   0  0  0  0  0  0  0  0  0  0  0  0
    2.3281    3.0129    0.0000 C   0  0  0  0  0  0  0  0  0  0  0  0
    4.2888    3.4325    0.0000 C   0  0  0  0  0  0  0  0  0  0  0  0
    3.9866    2.4739    0.0000 C   0  0  0  0  0  0  0  0  0  0  0  0
    3.0029    2.2678    0.0000 C   0  0  0  0  0  0  0  0  0  0  0  0
    2.6938    1.3168    0.0000 C   0  0  0  0  0  0  0  0  0  0  0  0
    3.2858    0.5022    0.0000 N   0  0  0  0  0  0  0  0  0  0  0  0
    2.6938   -0.3126    0.0000 N   0  0  0  0  0  0  0  0  0  0  0  0
    1.7360   -0.0013    0.0000 C   0  0  0  0  0  0  0  0  0  0  0  0
    0.8680   -0.4979    0.0000 C   0  0  0  0  0  0  0  0  0  0  0  0
    0.0000    0.0000    0.0000 N   0  0  0  0  0  0  0  0  0  0  0  0
   -0.0000    1.0058    0.0000 C   0  0  0  0  0  0  0  0  0  0  0  0
    0.8680    1.5137    0.0000 C   0  0  0  0  0  0  0  0  0  0  0  0
    0.8680    2.5137    0.0000 O   0  0  0  0  0  0  0  0  0  0  0  0
    0.0020    3.0137    0.0000 C   0  0  0  0  0  0  0  0  0  0  0  0
    0.0020    4.0137    0.0000 C   0  0  0  0  0  0  0  0  0  0  0  0
   -0.9980    4.0137    0.0000 F   0  0  0  0  0  0  0  0  0  0  0  0
    1.0020    4.0137    0.0000 F   0  0  0  0  0  0  0  0  0  0  0  0
    0.0020    5.0137    0.0000 F   0  0  0  0  0  0  0  0  0  0  0  0
    1.7360    1.0058    0.0000 N   0  0  0  0  0  0  0  0  0  0  0  0
  1  2  1  0  0  0  0
  2  3  1  0  0  0  0
  2  4  1  0  0  0  0
  4  5  1  0  0  0  0
  5  6  1  0  0  0  0
  6  7  2  0  0  0  0
  7 10  1  0  0  0  0
  5  8  2  0  0  0  0
  8  9  1  0  0  0  0
  9 10  2  0  0  0  0
 10 11  1  0  0  0  0
 11 25  1  0  0  0  0
 11 12  2  0  0  0  0
 12 13  1  0  0  0  0
 13 14  2  0  0  0  0
 14 25  1  0  0  0  0
 14 15  1  0  0  0  0
 15 16  2  0  0  0  0
 16 17  1  0  0  0  0
 17 18  2  0  0  0  0
 18 19  1  0  0  0  0
 19 20  1  0  0  0  0
 20 21  1  0  0  0  0
 21 22  1  0  0  0  0
 21 23  1  0  0  0  0
 21 24  1  0  0  0  0
 18 25  1  0  0  0  0
M  END
>  <MMV ID>
MMV670762

>  <Blood Stage EC50 (uM)>
10

>  <Blood Stage pEC50>
5

>  <PfATP4>
No

$$$$
OSM-X-073
  StarDrop          2D                              

 30 33  0  0  0  0  0  0  0  0999 V2000
    5.2010    6.2946    0.0000 F   0  0  0  0  0  0  0  0  0  0  0  0
    4.8961    5.3422    0.0000 C   0  0  0  0  0  0  0  0  0  0  0  0
    5.5685    4.6019    0.0000 F   0  0  0  0  0  0  0  0  0  0  0  0
    3.9189    5.1300    0.0000 O   0  0  0  0  0  0  0  0  0  0  0  0
    3.6140    4.1776    0.0000 C   0  0  0  0  0  0  0  0  0  0  0  0
    2.6371    3.9640    0.0000 C   0  0  0  0  0  0  0  0  0  0  0  0
    2.3281    3.0129    0.0000 C   0  0  0  0  0  0  0  0  0  0  0  0
    4.2888    3.4325    0.0000 C   0  0  0  0  0  0  0  0  0  0  0  0
    3.9866    2.4739    0.0000 C   0  0  0  0  0  0  0  0  0  0  0  0
    3.0029    2.2678    0.0000 C   0  0  0  0  0  0  0  0  0  0  0  0
    2.6938    1.3168    0.0000 C   0  0  0  0  0  0  0  0  0  0  0  0
    3.2858    0.5022    0.0000 N   0  0  0  0  0  0  0  0  0  0  0  0
    2.6938   -0.3126    0.0000 N   0  0  0  0  0  0  0  0  0  0  0  0
    1.7360   -0.0013    0.0000 C   0  0  0  0  0  0  0  0  0  0  0  0
    0.8680   -0.4979    0.0000 C   0  0  0  0  0  0  0  0  0  0  0  0
    0.0000    0.0000    0.0000 N   0  0  0  0  0  0  0  0  0  0  0  0
   -0.0000    1.0058    0.0000 C   0  0  0  0  0  0  0  0  0  0  0  0
   -0.8675    1.5033    0.0000 N   0  0  0  0  0  0  0  0  0  0  0  0
   -1.7320    1.0008    0.0000 C   0  0  0  0  0  0  0  0  0  0  0  0
   -2.5995    1.4982    0.0000 C   0  0  0  0  0  0  0  0  0  0  0  0
   -3.4641    0.9957    0.0000 C   0  0  0  0  0  0  0  0  0  0  0  0
   -4.3345    1.4983    0.0000 C   0  0  0  0  0  0  0  0  0  0  0  0
   -5.1991    0.9855    0.0000 C   0  0  0  0  0  0  0  0  0  0  0  0
   -6.0695    1.4779    0.0000 Cl  0  0  0  0  0  0  0  0  0  0  0  0
   -5.1932   -0.0196    0.0000 C   0  0  0  0  0  0  0  0  0  0  0  0
   -4.3228   -0.5120    0.0000 C   0  0  0  0  0  0  0  0  0  0  0  0
   -3.4582   -0.0095    0.0000 C   0  0  0  0  0  0  0  0  0  0  0  0
   -1.7291    0.0008    0.0000 O   0  0  0  0  0  0  0  0  0  0  0  0
    0.8680    1.5137    0.0000 C   0  0  0  0  0  0  0  0  0  0  0  0
    1.7360    1.0058    0.0000 N   0  0  0  0  0  0  0  0  0  0  0  0
  1  2  1  0  0  0  0
  2  3  1  0  0  0  0
  2  4  1  0  0  0  0
  4  5  1  0  0  0  0
  5  6  1  0  0  0  0
  6  7  2  0  0  0  0
  7 10  1  0  0  0  0
  5  8  2  0  0  0  0
  8  9  1  0  0  0  0
  9 10  2  0  0  0  0
 10 11  1  0  0  0  0
 11 30  1  0  0  0  0
 11 12  2  0  0  0  0
 12 13  1  0  0  0  0
 13 14  2  0  0  0  0
 14 30  1  0  0  0  0
 14 15  1  0  0  0  0
 15 16  2  0  0  0  0
 16 17  1  0  0  0  0
 17 18  1  0  0  0  0
 18 19  1  0  0  0  0
 19 20  1  0  0  0  0
 20 21  1  0  0  0  0
 21 27  1  0  0  0  0
 21 22  2  0  0  0  0
 22 23  1  0  0  0  0
 23 24  1  0  0  0  0
 23 25  2  0  0  0  0
 25 26  1  0  0  0  0
 26 27  2  0  0  0  0
 19 28  2  0  0  0  0
 17 29  2  0  0  0  0
 29 30  1  0  0  0  0
M  END
>  <MMV ID>
MMV672990

>  <Blood Stage EC50 (uM)>
10

>  <Blood Stage pEC50>
5

>  <PfATP4>
No

$$$$
OSM-S-177
  StarDrop          2D                              

 30 34  0  0  0  0  0  0  0  0999 V2000
    4.7859   -1.3695    0.0000 O   0  0  0  0  0  0  0  0  0  0  0  0
    4.2858   -0.5035    0.0000 C   0  0  0  0  0  0  0  0  0  0  0  0
    3.2858   -0.5036    0.0000 N   0  0  0  0  0  0  0  0  0  0  0  0
    2.6938    0.3110    0.0000 C   0  0  0  0  0  0  0  0  0  0  0  0
    1.7360   -0.0000    0.0000 C   0  0  0  0  0  0  0  0  0  0  0  0
    0.8680    0.5079    0.0000 C   0  0  0  0  0  0  0  0  0  0  0  0
    0.0000    0.0000    0.0000 C   0  0  0  0  0  0  0  0  0  0  0  0
   -0.0000   -1.0058    0.0000 C   0  0  0  0  0  0  0  0  0  0  0  0
    0.8680   -1.5037    0.0000 C   0  0  0  0  0  0  0  0  0  0  0  0
    1.7360   -1.0071    0.0000 C   0  0  0  0  0  0  0  0  0  0  0  0
    2.6938   -1.3184    0.0000 C   0  0  0  0  0  0  0  0  0  0  0  0
    4.7857    0.3625    0.0000 C   0  0  0  0  0  0  0  0  0  0  0  0
    4.2879    1.2363    0.0000 C   0  0  0  0  0  0  0  0  0  0  0  0
    4.7908    2.1074    0.0000 N   0  0  0  0  0  0  0  0  0  0  0  0
    5.7914    2.1047    0.0000 C   0  0  0  0  0  0  0  0  0  0  0  0
    6.2949    1.2406    0.0000 C   0  0  0  0  0  0  0  0  0  0  0  0
    7.2800    1.0314    0.0000 N   0  0  0  0  0  0  0  0  0  0  0  0
    7.3854    0.0297    0.0000 N   0  0  0  0  0  0  0  0  0  0  0  0
    6.4654   -0.3798    0.0000 C   0  0  0  0  0  0  0  0  0  0  0  0
    6.1017   -2.0916    0.0000 C   0  0  0  0  0  0  0  0  0  0  0  0
    5.1449   -2.3995    0.0000 C   0  0  0  0  0  0  0  0  0  0  0  0
    4.9370   -3.3776    0.0000 C   0  0  0  0  0  0  0  0  0  0  0  0
    5.6763   -4.0511    0.0000 C   0  0  0  0  0  0  0  0  0  0  0  0
    5.4642   -5.0283    0.0000 O   0  0  0  0  0  0  0  0  0  0  0  0
    4.5118   -5.3332    0.0000 C   0  0  0  0  0  0  0  0  0  0  0  0
    3.7715   -4.6609    0.0000 F   0  0  0  0  0  0  0  0  0  0  0  0
    4.2997   -6.3105    0.0000 F   0  0  0  0  0  0  0  0  0  0  0  0
    6.6332   -3.7432    0.0000 C   0  0  0  0  0  0  0  0  0  0  0  0
    6.8508   -2.7619    0.0000 C   0  0  0  0  0  0  0  0  0  0  0  0
    5.7914    0.3684    0.0000 N   0  0  0  0  0  0  0  0  0  0  0  0
  1  2  2  0  0  0  0
  2  3  1  0  0  0  0
  3 11  1  0  0  0  0
  3  4  1  0  0  0  0
  4  5  1  0  0  0  0
  5  6  1  0  0  0  0
  6  7  2  0  0  0  0
  7  8  1  0  0  0  0
  8  9  2  0  0  0  0
  9 10  1  0  0  0  0
  5 10  2  0  0  0  0
 10 11  1  0  0  0  0
  2 12  1  0  0  0  0
 12 30  1  0  0  0  0
 12 13  2  0  0  0  0
 13 14  1  0  0  0  0
 14 15  2  0  0  0  0
 15 16  1  0  0  0  0
 16 30  1  0  0  0  0
 16 17  2  0  0  0  0
 17 18  1  0  0  0  0
 18 19  2  0  0  0  0
 19 20  1  0  0  0  0
 20 29  1  0  0  0  0
 20 21  2  0  0  0  0
 21 22  1  0  0  0  0
 22 23  2  0  0  0  0
 23 24  1  0  0  0  0
 24 25  1  0  0  0  0
 25 26  1  0  0  0  0
 25 27  1  0  0  0  0
 23 28  1  0  0  0  0
 28 29  2  0  0  0  0
 19 30  1  0  0  0  0
M  END
>  <MMV ID>
MMV669000

>  <Blood Stage EC50 (uM)>
10

>  <Blood Stage pEC50>
5

>  <PfATP4>
No

$$$$
OSM-S-363
  StarDrop          2D                              

 28 31  0  0  0  0  0  0  0  0999 V2000
    3.5912   -6.8192    0.0000 F   0  0  0  0  0  0  0  0  0  0  0  0
    3.2781   -5.8695    0.0000 C   0  0  0  0  0  0  0  0  0  0  0  0
    2.2990   -5.6658    0.0000 F   0  0  0  0  0  0  0  0  0  0  0  0
    3.9440   -5.1234    0.0000 O   0  0  0  0  0  0  0  0  0  0  0  0
    3.6308   -4.1737    0.0000 C   0  0  0  0  0  0  0  0  0  0  0  0
    4.2956   -3.4267    0.0000 C   0  0  0  0  0  0  0  0  0  0  0  0
    3.9866   -2.4756    0.0000 C   0  0  0  0  0  0  0  0  0  0  0  0
    2.6470   -3.9676    0.0000 C   0  0  0  0  0  0  0  0  0  0  0  0
    2.3280   -3.0144    0.0000 C   0  0  0  0  0  0  0  0  0  0  0  0
    3.0028   -2.2695    0.0000 C   0  0  0  0  0  0  0  0  0  0  0  0
    2.6938   -1.3184    0.0000 C   0  0  0  0  0  0  0  0  0  0  0  0
    3.2858   -0.5036    0.0000 N   0  0  0  0  0  0  0  0  0  0  0  0
    2.6938    0.3110    0.0000 N   0  0  0  0  0  0  0  0  0  0  0  0
    1.7360   -0.0000    0.0000 C   0  0  0  0  0  0  0  0  0  0  0  0
    0.8680    0.5079    0.0000 C   0  0  0  0  0  0  0  0  0  0  0  0
    0.8680    1.5079    0.0000 S   0  0  0  0  0  0  0  0  0  0  0  0
    0.0020    2.0079    0.0000 C   0  0  0  0  0  0  0  0  0  0  0  0
    0.0020    3.0079    0.0000 C   0  0  0  0  0  0  0  0  0  0  0  0
   -0.8640    3.5079    0.0000 C   0  0  0  0  0  0  0  0  0  0  0  0
   -1.7331    3.0027    0.0000 C   0  0  0  0  0  0  0  0  0  0  0  0
   -2.5992    3.5027    0.0000 C   0  0  0  0  0  0  0  0  0  0  0  0
   -2.6050    4.5027    0.0000 C   0  0  0  0  0  0  0  0  0  0  0  0
   -1.7360    5.0079    0.0000 C   0  0  0  0  0  0  0  0  0  0  0  0
   -0.8611    4.5130    0.0000 C   0  0  0  0  0  0  0  0  0  0  0  0
    0.0000    0.0000    0.0000 N   0  0  0  0  0  0  0  0  0  0  0  0
   -0.0000   -1.0058    0.0000 C   0  0  0  0  0  0  0  0  0  0  0  0
    0.8680   -1.5037    0.0000 C   0  0  0  0  0  0  0  0  0  0  0  0
    1.7360   -1.0071    0.0000 N   0  0  0  0  0  0  0  0  0  0  0  0
  1  2  1  0  0  0  0
  2  3  1  0  0  0  0
  2  4  1  0  0  0  0
  4  5  1  0  0  0  0
  5  6  1  0  0  0  0
  6  7  2  0  0  0  0
  7 10  1  0  0  0  0
  5  8  2  0  0  0  0
  8  9  1  0  0  0  0
  9 10  2  0  0  0  0
 10 11  1  0  0  0  0
 11 28  1  0  0  0  0
 11 12  2  0  0  0  0
 12 13  1  0  0  0  0
 13 14  2  0  0  0  0
 14 28  1  0  0  0  0
 14 15  1  0  0  0  0
 15 16  1  0  0  0  0
 16 17  1  0  0  0  0
 17 18  1  0  0  0  0
 18 19  1  0  0  0  0
 19 24  1  0  0  0  0
 19 20  2  0  0  0  0
 20 21  1  0  0  0  0
 21 22  2  0  0  0  0
 22 23  1  0  0  0  0
 23 24  2  0  0  0  0
 15 25  2  0  0  0  0
 25 26  1  0  0  0  0
 26 27  2  0  0  0  0
 27 28  1  0  0  0  0
M  END
>  <MMV ID>
MMV693164

>  <Blood Stage EC50 (uM)>
10

>  <Blood Stage pEC50>
5

>  <PfATP4>
No

$$$$
OSM-S-364
  StarDrop          2D                              

 29 32  0  0  0  0  0  0  0  0999 V2000
    5.4328    7.0078    0.0000 F   0  0  0  0  0  0  0  0  0  0  0  0
    5.1279    6.0554    0.0000 C   0  0  0  0  0  0  0  0  0  0  0  0
    5.8003    5.3152    0.0000 F   0  0  0  0  0  0  0  0  0  0  0  0
    4.1507    5.8433    0.0000 O   0  0  0  0  0  0  0  0  0  0  0  0
    3.8458    4.8909    0.0000 C   0  0  0  0  0  0  0  0  0  0  0  0
    2.8689    4.6773    0.0000 C   0  0  0  0  0  0  0  0  0  0  0  0
    2.5599    3.7262    0.0000 C   0  0  0  0  0  0  0  0  0  0  0  0
    4.5206    4.1458    0.0000 C   0  0  0  0  0  0  0  0  0  0  0  0
    4.2184    3.1872    0.0000 C   0  0  0  0  0  0  0  0  0  0  0  0
    3.2346    2.9811    0.0000 C   0  0  0  0  0  0  0  0  0  0  0  0
    2.6938    1.3168    0.0000 C   0  0  0  0  0  0  0  0  0  0  0  0
    3.2858    0.5022    0.0000 N   0  0  0  0  0  0  0  0  0  0  0  0
    2.6938   -0.3126    0.0000 N   0  0  0  0  0  0  0  0  0  0  0  0
    1.7360   -0.0013    0.0000 C   0  0  0  0  0  0  0  0  0  0  0  0
    0.8680   -0.4979    0.0000 C   0  0  0  0  0  0  0  0  0  0  0  0
    0.0000    0.0000    0.0000 N   0  0  0  0  0  0  0  0  0  0  0  0
   -0.0000    1.0058    0.0000 C   0  0  0  0  0  0  0  0  0  0  0  0
    0.8680    1.5137    0.0000 C   0  0  0  0  0  0  0  0  0  0  0  0
    0.8680    2.5137    0.0000 S   0  0  0  0  0  0  0  0  0  0  0  0
    0.0020    3.0137    0.0000 C   0  0  0  0  0  0  0  0  0  0  0  0
    0.0020    4.0137    0.0000 C   0  0  0  0  0  0  0  0  0  0  0  0
   -0.8641    4.5137    0.0000 C   0  0  0  0  0  0  0  0  0  0  0  0
   -1.7331    4.0085    0.0000 C   0  0  0  0  0  0  0  0  0  0  0  0
   -2.5992    4.5085    0.0000 C   0  0  0  0  0  0  0  0  0  0  0  0
   -2.6050    5.5085    0.0000 C   0  0  0  0  0  0  0  0  0  0  0  0
   -1.7360    6.0137    0.0000 C   0  0  0  0  0  0  0  0  0  0  0  0
   -0.8611    5.5188    0.0000 C   0  0  0  0  0  0  0  0  0  0  0  0
    1.7340    3.0137    0.0000 O   0  0  0  0  0  0  0  0  0  0  0  0
    1.7360    1.0058    0.0000 N   0  0  0  0  0  0  0  0  0  0  0  0
  1  2  1  0  0  0  0
  2  3  1  0  0  0  0
  2  4  1  0  0  0  0
  4  5  1  0  0  0  0
  5  6  1  0  0  0  0
  6  7  2  0  0  0  0
  7 10  1  0  0  0  0
  5  8  2  0  0  0  0
  8  9  1  0  0  0  0
  9 10  2  0  0  0  0
 10 11  1  0  0  0  0
 11 29  1  0  0  0  0
 11 12  2  0  0  0  0
 12 13  1  0  0  0  0
 13 14  2  0  0  0  0
 14 29  1  0  0  0  0
 14 15  1  0  0  0  0
 15 16  2  0  0  0  0
 16 17  1  0  0  0  0
 17 18  2  0  0  0  0
 18 19  1  0  0  0  0
 19 20  1  0  0  0  0
 20 21  1  0  0  0  0
 21 22  1  0  0  0  0
 22 27  1  0  0  0  0
 22 23  2  0  0  0  0
 23 24  1  0  0  0  0
 24 25  2  0  0  0  0
 25 26  1  0  0  0  0
 26 27  2  0  0  0  0
 19 28  2  0  0  0  0
 18 29  1  0  0  0  0
M  END
>  <MMV ID>
MMV693167

>  <Blood Stage EC50 (uM)>
10

>  <Blood Stage pEC50>
5

>  <PfATP4>
No

$$$$
OSM-S-365
  StarDrop          2D                              

 30 33  0  0  0  0  0  0  0  0999 V2000
    5.4328    7.0078    0.0000 F   0  0  0  0  0  0  0  0  0  0  0  0
    5.1279    6.0554    0.0000 C   0  0  0  0  0  0  0  0  0  0  0  0
    5.8003    5.3152    0.0000 F   0  0  0  0  0  0  0  0  0  0  0  0
    4.1507    5.8433    0.0000 O   0  0  0  0  0  0  0  0  0  0  0  0
    3.8458    4.8909    0.0000 C   0  0  0  0  0  0  0  0  0  0  0  0
    2.8689    4.6773    0.0000 C   0  0  0  0  0  0  0  0  0  0  0  0
    2.5599    3.7262    0.0000 C   0  0  0  0  0  0  0  0  0  0  0  0
    4.5206    4.1458    0.0000 C   0  0  0  0  0  0  0  0  0  0  0  0
    4.2184    3.1872    0.0000 C   0  0  0  0  0  0  0  0  0  0  0  0
    3.2346    2.9811    0.0000 C   0  0  0  0  0  0  0  0  0  0  0  0
    2.6938    1.3168    0.0000 C   0  0  0  0  0  0  0  0  0  0  0  0
    3.2858    0.5022    0.0000 N   0  0  0  0  0  0  0  0  0  0  0  0
    2.6938   -0.3126    0.0000 N   0  0  0  0  0  0  0  0  0  0  0  0
    1.7360   -0.0013    0.0000 C   0  0  0  0  0  0  0  0  0  0  0  0
    0.8680   -0.4979    0.0000 C   0  0  0  0  0  0  0  0  0  0  0  0
    0.0000    0.0000    0.0000 N   0  0  0  0  0  0  0  0  0  0  0  0
   -0.0000    1.0058    0.0000 C   0  0  0  0  0  0  0  0  0  0  0  0
    0.8680    1.5137    0.0000 C   0  0  0  0  0  0  0  0  0  0  0  0
    0.8680    2.5137    0.0000 S   0  0  0  0  0  0  0  0  0  0  0  0
    0.8680    3.5137    0.0000 C   0  0  0  0  0  0  0  0  0  0  0  0
    0.0020    4.0137    0.0000 C   0  0  0  0  0  0  0  0  0  0  0  0
    0.0020    5.0137    0.0000 C   0  0  0  0  0  0  0  0  0  0  0  0
   -0.8700    5.5137    0.0000 C   0  0  0  0  0  0  0  0  0  0  0  0
   -0.8701    6.5138    0.0000 C   0  0  0  0  0  0  0  0  0  0  0  0
   -0.0070    7.0188    0.0000 C   0  0  0  0  0  0  0  0  0  0  0  0
    0.8650    6.5188    0.0000 C   0  0  0  0  0  0  0  0  0  0  0  0
    0.8739    5.5137    0.0000 C   0  0  0  0  0  0  0  0  0  0  0  0
   -0.1320    2.5137    0.0000 O   0  0  0  0  0  0  0  0  0  0  0  0
    1.8680    2.5137    0.0000 O   0  0  0  0  0  0  0  0  0  0  0  0
    1.7360    1.0058    0.0000 N   0  0  0  0  0  0  0  0  0  0  0  0
  1  2  1  0  0  0  0
  2  3  1  0  0  0  0
  2  4  1  0  0  0  0
  4  5  1  0  0  0  0
  5  6  1  0  0  0  0
  6  7  2  0  0  0  0
  7 10  1  0  0  0  0
  5  8  2  0  0  0  0
  8  9  1  0  0  0  0
  9 10  2  0  0  0  0
 10 11  1  0  0  0  0
 11 30  1  0  0  0  0
 11 12  2  0  0  0  0
 12 13  1  0  0  0  0
 13 14  2  0  0  0  0
 14 30  1  0  0  0  0
 14 15  1  0  0  0  0
 15 16  2  0  0  0  0
 16 17  1  0  0  0  0
 17 18  2  0  0  0  0
 18 19  1  0  0  0  0
 19 20  1  0  0  0  0
 20 21  1  0  0  0  0
 21 22  1  0  0  0  0
 22 27  1  0  0  0  0
 22 23  2  0  0  0  0
 23 24  1  0  0  0  0
 24 25  2  0  0  0  0
 25 26  1  0  0  0  0
 26 27  2  0  0  0  0
 19 28  2  0  0  0  0
 19 29  2  0  0  0  0
 18 30  1  0  0  0  0
M  END
>  <MMV ID>
MMV693166

>  <Blood Stage EC50 (uM)>
10

>  <Blood Stage pEC50>
5

>  <PfATP4>
No

$$$$
OSM-S-366
  StarDrop          2D                              

 30 33  0  0  0  0  0  0  0  0999 V2000
    4.2489    6.0742    0.0000 F   0  0  0  0  0  0  0  0  0  0  0  0
    3.9357    5.1246    0.0000 C   0  0  0  0  0  0  0  0  0  0  0  0
    4.8853    4.8113    0.0000 F   0  0  0  0  0  0  0  0  0  0  0  0
    2.9860    5.4378    0.0000 F   0  0  0  0  0  0  0  0  0  0  0  0
    3.6224    4.1749    0.0000 C   0  0  0  0  0  0  0  0  0  0  0  0
    4.2939    3.4269    0.0000 C   0  0  0  0  0  0  0  0  0  0  0  0
    3.9807    2.4771    0.0000 C   0  0  0  0  0  0  0  0  0  0  0  0
    2.6377    3.9732    0.0000 N   0  0  0  0  0  0  0  0  0  0  0  0
    2.3314    3.0159    0.0000 C   0  0  0  0  0  0  0  0  0  0  0  0
    3.0029    2.2678    0.0000 C   0  0  0  0  0  0  0  0  0  0  0  0
    2.6938    1.3168    0.0000 C   0  0  0  0  0  0  0  0  0  0  0  0
    3.2858    0.5022    0.0000 N   0  0  0  0  0  0  0  0  0  0  0  0
    2.6938   -0.3126    0.0000 N   0  0  0  0  0  0  0  0  0  0  0  0
    1.7360   -0.0013    0.0000 C   0  0  0  0  0  0  0  0  0  0  0  0
    0.8680   -0.4979    0.0000 C   0  0  0  0  0  0  0  0  0  0  0  0
    0.0000    0.0000    0.0000 N   0  0  0  0  0  0  0  0  0  0  0  0
   -0.0000    1.0058    0.0000 C   0  0  0  0  0  0  0  0  0  0  0  0
    0.8680    1.5137    0.0000 C   0  0  0  0  0  0  0  0  0  0  0  0
    0.8680    2.5137    0.0000 O   0  0  0  0  0  0  0  0  0  0  0  0
    0.0020    3.0137    0.0000 C   0  0  0  0  0  0  0  0  0  0  0  0
    0.0020    4.0137    0.0000 C   0  0  0  0  0  0  0  0  0  0  0  0
   -0.8640    4.5137    0.0000 C   0  0  0  0  0  0  0  0  0  0  0  0
   -0.8611    5.5188    0.0000 C   0  0  0  0  0  0  0  0  0  0  0  0
   -1.7360    6.0137    0.0000 C   0  0  0  0  0  0  0  0  0  0  0  0
   -1.7419    7.0137    0.0000 F   0  0  0  0  0  0  0  0  0  0  0  0
   -2.6050    5.5085    0.0000 C   0  0  0  0  0  0  0  0  0  0  0  0
   -3.4732    6.0047    0.0000 F   0  0  0  0  0  0  0  0  0  0  0  0
   -2.5992    4.5085    0.0000 C   0  0  0  0  0  0  0  0  0  0  0  0
   -1.7331    4.0085    0.0000 C   0  0  0  0  0  0  0  0  0  0  0  0
    1.7360    1.0058    0.0000 N   0  0  0  0  0  0  0  0  0  0  0  0
  1  2  1  0  0  0  0
  2  3  1  0  0  0  0
  2  4  1  0  0  0  0
  2  5  1  0  0  0  0
  5  6  1  0  0  0  0
  6  7  2  0  0  0  0
  7 10  1  0  0  0  0
  5  8  2  0  0  0  0
  8  9  1  0  0  0  0
  9 10  2  0  0  0  0
 10 11  1  0  0  0  0
 11 30  1  0  0  0  0
 11 12  2  0  0  0  0
 12 13  1  0  0  0  0
 13 14  2  0  0  0  0
 14 30  1  0  0  0  0
 14 15  1  0  0  0  0
 15 16  2  0  0  0  0
 16 17  1  0  0  0  0
 17 18  2  0  0  0  0
 18 19  1  0  0  0  0
 19 20  1  0  0  0  0
 20 21  1  0  0  0  0
 21 22  1  0  0  0  0
 22 29  1  0  0  0  0
 22 23  2  0  0  0  0
 23 24  1  0  0  0  0
 24 25  1  0  0  0  0
 24 26  2  0  0  0  0
 26 27  1  0  0  0  0
 26 28  1  0  0  0  0
 28 29  2  0  0  0  0
 18 30  1  0  0  0  0
M  END
>  <MMV ID>
MMV670936

>  <Blood Stage EC50 (uM)>
0.521

>  <Blood Stage pEC50>
6.283

>  <PfATP4>
No

$$$$
OSM-S-372
  StarDrop          2D                              

 33 37  0  0  0  0  0  0  0  0999 V2000
    5.2010    6.2946    0.0000 F   0  0  0  0  0  0  0  0  0  0  0  0
    4.8961    5.3422    0.0000 C   0  0  0  0  0  0  0  0  0  0  0  0
    5.5685    4.6019    0.0000 F   0  0  0  0  0  0  0  0  0  0  0  0
    3.9189    5.1300    0.0000 O   0  0  0  0  0  0  0  0  0  0  0  0
    3.6140    4.1776    0.0000 C   0  0  0  0  0  0  0  0  0  0  0  0
    2.6371    3.9640    0.0000 C   0  0  0  0  0  0  0  0  0  0  0  0
    2.3281    3.0129    0.0000 C   0  0  0  0  0  0  0  0  0  0  0  0
    4.2888    3.4325    0.0000 C   0  0  0  0  0  0  0  0  0  0  0  0
    3.9866    2.4739    0.0000 C   0  0  0  0  0  0  0  0  0  0  0  0
    3.0029    2.2678    0.0000 C   0  0  0  0  0  0  0  0  0  0  0  0
    2.6938    1.3168    0.0000 C   0  0  0  0  0  0  0  0  0  0  0  0
    3.2858    0.5022    0.0000 N   0  0  0  0  0  0  0  0  0  0  0  0
    2.6938   -0.3126    0.0000 N   0  0  0  0  0  0  0  0  0  0  0  0
    1.7360   -0.0013    0.0000 C   0  0  0  0  0  0  0  0  0  0  0  0
    0.8680   -0.4979    0.0000 C   0  0  0  0  0  0  0  0  0  0  0  0
    0.0000    0.0000    0.0000 N   0  0  0  0  0  0  0  0  0  0  0  0
   -0.0000    1.0058    0.0000 C   0  0  0  0  0  0  0  0  0  0  0  0
    0.8680    1.5137    0.0000 C   0  0  0  0  0  0  0  0  0  0  0  0
    0.8680    2.5137    0.0000 O   0  0  0  0  0  0  0  0  0  0  0  0
    0.0020    3.0137    0.0000 C   0  0  0  0  0  0  0  0  0  0  0  0
    0.0020    4.0137    0.0000 C   0  0  0  0  0  0  0  0  0  0  0  0
   -0.8062    4.6025    0.0000 C   0  0  0  0  0  0  0  0  0  0  0  0
   -0.5016    5.5554    0.0000 N   0  0  0  0  0  0  0  0  0  0  0  0
   -1.0917    6.3627    0.0000 C   0  0  0  0  0  0  0  0  0  0  0  0
   -2.0859    6.2554    0.0000 C   0  0  0  0  0  0  0  0  0  0  0  0
   -2.4894    5.3347    0.0000 C   0  0  0  0  0  0  0  0  0  0  0  0
   -3.4837    5.2273    0.0000 C   0  0  0  0  0  0  0  0  0  0  0  0
   -4.0785    6.0312    0.0000 C   0  0  0  0  0  0  0  0  0  0  0  0
   -3.6750    6.9519    0.0000 C   0  0  0  0  0  0  0  0  0  0  0  0
   -2.6766    7.0686    0.0000 C   0  0  0  0  0  0  0  0  0  0  0  0
    0.5030    5.5563    0.0000 N   0  0  0  0  0  0  0  0  0  0  0  0
    0.8114    4.6034    0.0000 N   0  0  0  0  0  0  0  0  0  0  0  0
    1.7360    1.0058    0.0000 N   0  0  0  0  0  0  0  0  0  0  0  0
  1  2  1  0  0  0  0
  2  3  1  0  0  0  0
  2  4  1  0  0  0  0
  4  5  1  0  0  0  0
  5  6  1  0  0  0  0
  6  7  2  0  0  0  0
  7 10  1  0  0  0  0
  5  8  2  0  0  0  0
  8  9  1  0  0  0  0
  9 10  2  0  0  0  0
 10 11  1  0  0  0  0
 11 33  1  0  0  0  0
 11 12  2  0  0  0  0
 12 13  1  0  0  0  0
 13 14  2  0  0  0  0
 14 33  1  0  0  0  0
 14 15  1  0  0  0  0
 15 16  2  0  0  0  0
 16 17  1  0  0  0  0
 17 18  2  0  0  0  0
 18 19  1  0  0  0  0
 19 20  1  0  0  0  0
 20 21  1  0  0  0  0
 21 32  1  0  0  0  0
 21 22  2  0  0  0  0
 22 23  1  0  0  0  0
 23 24  1  0  0  0  0
 24 25  1  0  0  0  0
 25 30  1  0  0  0  0
 25 26  2  0  0  0  0
 26 27  1  0  0  0  0
 27 28  2  0  0  0  0
 28 29  1  0  0  0  0
 29 30  2  0  0  0  0
 23 31  1  0  0  0  0
 31 32  2  0  0  0  0
 18 33  1  0  0  0  0
M  END
>  <MMV ID>
MMV897701

>  <Blood Stage EC50 (uM)>
10

>  <Blood Stage pEC50>
5

>  <PfATP4>
No

$$$$
OSM-S-373
  StarDrop          2D                              

 32 36  0  0  0  0  0  0  0  0999 V2000
    5.2010    6.2946    0.0000 F   0  0  0  0  0  0  0  0  0  0  0  0
    4.8961    5.3422    0.0000 C   0  0  0  0  0  0  0  0  0  0  0  0
    5.5685    4.6019    0.0000 F   0  0  0  0  0  0  0  0  0  0  0  0
    3.9189    5.1300    0.0000 O   0  0  0  0  0  0  0  0  0  0  0  0
    3.6140    4.1776    0.0000 C   0  0  0  0  0  0  0  0  0  0  0  0
    2.6371    3.9640    0.0000 C   0  0  0  0  0  0  0  0  0  0  0  0
    2.3281    3.0129    0.0000 C   0  0  0  0  0  0  0  0  0  0  0  0
    4.2888    3.4325    0.0000 C   0  0  0  0  0  0  0  0  0  0  0  0
    3.9866    2.4739    0.0000 C   0  0  0  0  0  0  0  0  0  0  0  0
    3.0029    2.2678    0.0000 C   0  0  0  0  0  0  0  0  0  0  0  0
    2.6938    1.3168    0.0000 C   0  0  0  0  0  0  0  0  0  0  0  0
    3.2858    0.5022    0.0000 N   0  0  0  0  0  0  0  0  0  0  0  0
    2.6938   -0.3126    0.0000 N   0  0  0  0  0  0  0  0  0  0  0  0
    1.7360   -0.0013    0.0000 C   0  0  0  0  0  0  0  0  0  0  0  0
    0.8680   -0.4979    0.0000 C   0  0  0  0  0  0  0  0  0  0  0  0
    0.0000    0.0000    0.0000 N   0  0  0  0  0  0  0  0  0  0  0  0
   -0.0000    1.0058    0.0000 C   0  0  0  0  0  0  0  0  0  0  0  0
    0.8680    1.5137    0.0000 C   0  0  0  0  0  0  0  0  0  0  0  0
    0.8680    2.5137    0.0000 O   0  0  0  0  0  0  0  0  0  0  0  0
    0.0020    3.0137    0.0000 C   0  0  0  0  0  0  0  0  0  0  0  0
    0.0020    4.0137    0.0000 C   0  0  0  0  0  0  0  0  0  0  0  0
    0.8114    4.6034    0.0000 N   0  0  0  0  0  0  0  0  0  0  0  0
    0.5030    5.5563    0.0000 N   0  0  0  0  0  0  0  0  0  0  0  0
   -0.8062    4.6025    0.0000 C   0  0  0  0  0  0  0  0  0  0  0  0
   -0.5016    5.5554    0.0000 N   0  0  0  0  0  0  0  0  0  0  0  0
   -1.0917    6.3627    0.0000 C   0  0  0  0  0  0  0  0  0  0  0  0
   -2.0908    6.2519    0.0000 C   0  0  0  0  0  0  0  0  0  0  0  0
   -2.6809    7.0592    0.0000 C   0  0  0  0  0  0  0  0  0  0  0  0
   -2.2821    7.9763    0.0000 C   0  0  0  0  0  0  0  0  0  0  0  0
   -1.2830    8.0872    0.0000 C   0  0  0  0  0  0  0  0  0  0  0  0
   -0.6828    7.2809    0.0000 C   0  0  0  0  0  0  0  0  0  0  0  0
    1.7360    1.0058    0.0000 N   0  0  0  0  0  0  0  0  0  0  0  0
  1  2  1  0  0  0  0
  2  3  1  0  0  0  0
  2  4  1  0  0  0  0
  4  5  1  0  0  0  0
  5  6  1  0  0  0  0
  6  7  2  0  0  0  0
  7 10  1  0  0  0  0
  5  8  2  0  0  0  0
  8  9  1  0  0  0  0
  9 10  2  0  0  0  0
 10 11  1  0  0  0  0
 11 32  1  0  0  0  0
 11 12  2  0  0  0  0
 12 13  1  0  0  0  0
 13 14  2  0  0  0  0
 14 32  1  0  0  0  0
 14 15  1  0  0  0  0
 15 16  2  0  0  0  0
 16 17  1  0  0  0  0
 17 18  2  0  0  0  0
 18 19  1  0  0  0  0
 19 20  1  0  0  0  0
 20 21  1  0  0  0  0
 21 22  1  0  0  0  0
 22 23  2  0  0  0  0
 23 25  1  0  0  0  0
 21 24  2  0  0  0  0
 24 25  1  0  0  0  0
 25 26  1  0  0  0  0
 26 31  1  0  0  0  0
 26 27  2  0  0  0  0
 27 28  1  0  0  0  0
 28 29  2  0  0  0  0
 29 30  1  0  0  0  0
 30 31  2  0  0  0  0
 18 32  1  0  0  0  0
M  END
>  <MMV ID>
MMV897702

>  <Blood Stage EC50 (uM)>
10

>  <Blood Stage pEC50>
5

>  <PfATP4>
No

$$$$
OSM-S-374
  StarDrop          2D                              

 33 37  0  0  0  0  0  0  0  0999 V2000
    5.2010    6.2946    0.0000 F   0  0  0  0  0  0  0  0  0  0  0  0
    4.8961    5.3422    0.0000 C   0  0  0  0  0  0  0  0  0  0  0  0
    5.5685    4.6019    0.0000 F   0  0  0  0  0  0  0  0  0  0  0  0
    3.9189    5.1300    0.0000 O   0  0  0  0  0  0  0  0  0  0  0  0
    3.6140    4.1776    0.0000 C   0  0  0  0  0  0  0  0  0  0  0  0
    2.6371    3.9640    0.0000 C   0  0  0  0  0  0  0  0  0  0  0  0
    2.3281    3.0129    0.0000 C   0  0  0  0  0  0  0  0  0  0  0  0
    4.2888    3.4325    0.0000 C   0  0  0  0  0  0  0  0  0  0  0  0
    3.9866    2.4739    0.0000 C   0  0  0  0  0  0  0  0  0  0  0  0
    3.0029    2.2678    0.0000 C   0  0  0  0  0  0  0  0  0  0  0  0
    2.6938    1.3168    0.0000 C   0  0  0  0  0  0  0  0  0  0  0  0
    3.2858    0.5022    0.0000 N   0  0  0  0  0  0  0  0  0  0  0  0
    2.6938   -0.3126    0.0000 N   0  0  0  0  0  0  0  0  0  0  0  0
    1.7360   -0.0013    0.0000 C   0  0  0  0  0  0  0  0  0  0  0  0
    0.8680   -0.4979    0.0000 C   0  0  0  0  0  0  0  0  0  0  0  0
    0.0000    0.0000    0.0000 N   0  0  0  0  0  0  0  0  0  0  0  0
   -0.0000    1.0058    0.0000 C   0  0  0  0  0  0  0  0  0  0  0  0
    0.8680    1.5137    0.0000 C   0  0  0  0  0  0  0  0  0  0  0  0
    0.8680    2.5137    0.0000 O   0  0  0  0  0  0  0  0  0  0  0  0
    0.0020    3.0137    0.0000 C   0  0  0  0  0  0  0  0  0  0  0  0
    0.0020    4.0137    0.0000 C   0  0  0  0  0  0  0  0  0  0  0  0
   -0.8062    4.6025    0.0000 C   0  0  0  0  0  0  0  0  0  0  0  0
   -0.5016    5.5554    0.0000 N   0  0  0  0  0  0  0  0  0  0  0  0
   -1.0917    6.3627    0.0000 C   0  0  0  0  0  0  0  0  0  0  0  0
   -2.0907    6.2519    0.0000 N   0  0  0  0  0  0  0  0  0  0  0  0
   -2.6766    7.0686    0.0000 C   0  0  0  0  0  0  0  0  0  0  0  0
   -3.6714    6.9671    0.0000 Cl  0  0  0  0  0  0  0  0  0  0  0  0
   -2.2677    7.9869    0.0000 C   0  0  0  0  0  0  0  0  0  0  0  0
   -1.2728    8.0884    0.0000 N   0  0  0  0  0  0  0  0  0  0  0  0
   -0.6827    7.2810    0.0000 C   0  0  0  0  0  0  0  0  0  0  0  0
    0.5030    5.5563    0.0000 N   0  0  0  0  0  0  0  0  0  0  0  0
    0.8114    4.6034    0.0000 N   0  0  0  0  0  0  0  0  0  0  0  0
    1.7360    1.0058    0.0000 N   0  0  0  0  0  0  0  0  0  0  0  0
  1  2  1  0  0  0  0
  2  3  1  0  0  0  0
  2  4  1  0  0  0  0
  4  5  1  0  0  0  0
  5  6  1  0  0  0  0
  6  7  2  0  0  0  0
  7 10  1  0  0  0  0
  5  8  2  0  0  0  0
  8  9  1  0  0  0  0
  9 10  2  0  0  0  0
 10 11  1  0  0  0  0
 11 33  1  0  0  0  0
 11 12  2  0  0  0  0
 12 13  1  0  0  0  0
 13 14  2  0  0  0  0
 14 33  1  0  0  0  0
 14 15  1  0  0  0  0
 15 16  2  0  0  0  0
 16 17  1  0  0  0  0
 17 18  2  0  0  0  0
 18 19  1  0  0  0  0
 19 20  1  0  0  0  0
 20 21  1  0  0  0  0
 21 32  1  0  0  0  0
 21 22  2  0  0  0  0
 22 23  1  0  0  0  0
 23 24  1  0  0  0  0
 24 30  1  0  0  0  0
 24 25  2  0  0  0  0
 25 26  1  0  0  0  0
 26 27  1  0  0  0  0
 26 28  2  0  0  0  0
 28 29  1  0  0  0  0
 29 30  2  0  0  0  0
 23 31  1  0  0  0  0
 31 32  2  0  0  0  0
 18 33  1  0  0  0  0
M  END
>  <MMV ID>
MMV897703

>  <Blood Stage EC50 (uM)>
10

>  <Blood Stage pEC50>
5

>  <PfATP4>
No

$$$$
OSM-S-375
  StarDrop          2D                              

 29 36  0  0  0  0  0  0  0  0999 V2000
    4.0565    5.5285    0.0000 I   0  0  0  0  0  0  0  0  0  0  0  0
    3.7450    4.5782    0.0000 C   0  0  0  0  0  0  0  0  0  0  0  0
    4.1990    3.6815    0.0000 C   0  0  0  0  0  0  0  0  0  0  0  0
    3.3023    3.2275    0.0000 C   0  0  0  0  0  0  0  0  0  0  0  0
    2.8483    4.1242    0.0000 C   0  0  0  0  0  0  0  0  0  0  0  0
    2.5443    3.1623    0.0000 C   0  0  0  0  0  0  0  0  0  0  0  0
    3.4410    3.6163    0.0000 C   0  0  0  0  0  0  0  0  0  0  0  0
    3.8950    2.7195    0.0000 C   0  0  0  0  0  0  0  0  0  0  0  0
    3.0029    2.2678    0.0000 C   0  0  0  0  0  0  0  0  0  0  0  0
    2.6938    1.3168    0.0000 C   0  0  0  0  0  0  0  0  0  0  0  0
    3.2858    0.5022    0.0000 N   0  0  0  0  0  0  0  0  0  0  0  0
    2.6938   -0.3126    0.0000 N   0  0  0  0  0  0  0  0  0  0  0  0
    1.7360   -0.0013    0.0000 C   0  0  0  0  0  0  0  0  0  0  0  0
    0.8680   -0.4979    0.0000 C   0  0  0  0  0  0  0  0  0  0  0  0
    0.0000    0.0000    0.0000 N   0  0  0  0  0  0  0  0  0  0  0  0
   -0.0000    1.0058    0.0000 C   0  0  0  0  0  0  0  0  0  0  0  0
    0.8680    1.5137    0.0000 C   0  0  0  0  0  0  0  0  0  0  0  0
    0.8680    2.5137    0.0000 O   0  0  0  0  0  0  0  0  0  0  0  0
    0.0020    3.0137    0.0000 C   0  0  0  0  0  0  0  0  0  0  0  0
    0.0020    4.0137    0.0000 C   0  0  0  0  0  0  0  0  0  0  0  0
   -0.8640    4.5137    0.0000 C   0  0  0  0  0  0  0  0  0  0  0  0
   -0.8611    5.5188    0.0000 C   0  0  0  0  0  0  0  0  0  0  0  0
   -1.7360    6.0137    0.0000 C   0  0  0  0  0  0  0  0  0  0  0  0
   -1.7419    7.0137    0.0000 F   0  0  0  0  0  0  0  0  0  0  0  0
   -2.6050    5.5085    0.0000 C   0  0  0  0  0  0  0  0  0  0  0  0
   -3.4732    6.0047    0.0000 F   0  0  0  0  0  0  0  0  0  0  0  0
   -2.5992    4.5085    0.0000 C   0  0  0  0  0  0  0  0  0  0  0  0
   -1.7331    4.0085    0.0000 C   0  0  0  0  0  0  0  0  0  0  0  0
    1.7360    1.0058    0.0000 N   0  0  0  0  0  0  0  0  0  0  0  0
  1  2  1  0  0  0  0
  2  5  1  0  0  0  0
  2  7  1  0  0  0  0
  2  3  1  0  0  0  0
  3  4  1  0  0  0  0
  4  9  1  0  0  0  0
  4  5  1  0  0  0  0
  5  6  1  0  0  0  0
  6  9  1  0  0  0  0
  6  7  1  0  0  0  0
  7  8  1  0  0  0  0
  3  8  1  0  0  0  0
  8  9  1  0  0  0  0
  9 10  1  0  0  0  0
 10 29  1  0  0  0  0
 10 11  2  0  0  0  0
 11 12  1  0  0  0  0
 12 13  2  0  0  0  0
 13 29  1  0  0  0  0
 13 14  1  0  0  0  0
 14 15  2  0  0  0  0
 15 16  1  0  0  0  0
 16 17  2  0  0  0  0
 17 18  1  0  0  0  0
 18 19  1  0  0  0  0
 19 20  1  0  0  0  0
 20 21  1  0  0  0  0
 21 28  1  0  0  0  0
 21 22  2  0  0  0  0
 22 23  1  0  0  0  0
 23 24  1  0  0  0  0
 23 25  2  0  0  0  0
 25 26  1  0  0  0  0
 25 27  1  0  0  0  0
 27 28  2  0  0  0  0
 17 29  1  0  0  0  0
M  END
>  <MMV ID>
MMV897704

>  <Blood Stage EC50 (uM)>
10

>  <Blood Stage pEC50>
5

>  <PfATP4>
No

$$$$
OSM-S-382
  StarDrop          2D                              

 31 38  0  0  0  0  0  0  0  0999 V2000
    4.4450    5.4343    0.0000 I   0  0  0  0  0  0  0  0  0  0  0  0
    4.1360    4.4832    0.0000 C   0  0  0  0  0  0  0  0  0  0  0  0
    3.1307    4.3988    0.0000 C   0  0  0  0  0  0  0  0  0  0  0  0
    3.8915    3.7419    0.0000 C   0  0  0  0  0  0  0  0  0  0  0  0
    3.2346    2.9811    0.0000 C   0  0  0  0  0  0  0  0  0  0  0  0
    2.4739    3.6380    0.0000 C   0  0  0  0  0  0  0  0  0  0  0  0
    3.4791    3.7225    0.0000 C   0  0  0  0  0  0  0  0  0  0  0  0
    4.2399    3.0656    0.0000 C   0  0  0  0  0  0  0  0  0  0  0  0
    4.8929    3.8297    0.0000 C   0  0  0  0  0  0  0  0  0  0  0  0
    2.6938    1.3168    0.0000 C   0  0  0  0  0  0  0  0  0  0  0  0
    3.2858    0.5022    0.0000 N   0  0  0  0  0  0  0  0  0  0  0  0
    2.6938   -0.3126    0.0000 N   0  0  0  0  0  0  0  0  0  0  0  0
    1.7360   -0.0013    0.0000 C   0  0  0  0  0  0  0  0  0  0  0  0
    0.8680   -0.4979    0.0000 C   0  0  0  0  0  0  0  0  0  0  0  0
    0.0000    0.0000    0.0000 N   0  0  0  0  0  0  0  0  0  0  0  0
   -0.0000    1.0058    0.0000 C   0  0  0  0  0  0  0  0  0  0  0  0
    0.8680    1.5137    0.0000 C   0  0  0  0  0  0  0  0  0  0  0  0
    0.8680    2.5137    0.0000 C   0  0  0  0  0  0  0  0  0  0  0  0
    0.0020    3.0137    0.0000 N   0  0  0  0  0  0  0  0  0  0  0  0
    0.0020    4.0137    0.0000 C   0  0  0  0  0  0  0  0  0  0  0  0
    0.8695    4.5112    0.0000 C   0  0  0  0  0  0  0  0  0  0  0  0
    0.8695    5.5164    0.0000 C   0  0  0  0  0  0  0  0  0  0  0  0
    1.7370    6.0138    0.0000 C   0  0  0  0  0  0  0  0  0  0  0  0
    1.2395    6.8813    0.0000 F   0  0  0  0  0  0  0  0  0  0  0  0
    2.2344    5.1463    0.0000 F   0  0  0  0  0  0  0  0  0  0  0  0
    2.6045    6.5113    0.0000 F   0  0  0  0  0  0  0  0  0  0  0  0
    0.0020    6.0241    0.0000 N   0  0  0  0  0  0  0  0  0  0  0  0
   -0.8655    5.5164    0.0000 C   0  0  0  0  0  0  0  0  0  0  0  0
   -0.8655    4.5112    0.0000 C   0  0  0  0  0  0  0  0  0  0  0  0
    1.7340    3.0137    0.0000 O   0  0  0  0  0  0  0  0  0  0  0  0
    1.7360    1.0058    0.0000 N   0  0  0  0  0  0  0  0  0  0  0  0
  1  2  1  0  0  0  0
  2  7  1  0  0  0  0
  2  9  1  0  0  0  0
  2  3  1  0  0  0  0
  3  6  1  0  0  0  0
  3  4  1  0  0  0  0
  4  9  1  0  0  0  0
  4  5  1  0  0  0  0
  5  8  1  0  0  0  0
  5  6  1  0  0  0  0
  6  7  1  0  0  0  0
  7  8  1  0  0  0  0
  8  9  1  0  0  0  0
  5 10  1  0  0  0  0
 10 31  1  0  0  0  0
 10 11  2  0  0  0  0
 11 12  1  0  0  0  0
 12 13  2  0  0  0  0
 13 31  1  0  0  0  0
 13 14  1  0  0  0  0
 14 15  2  0  0  0  0
 15 16  1  0  0  0  0
 16 17  2  0  0  0  0
 17 18  1  0  0  0  0
 18 19  1  0  0  0  0
 19 20  1  0  0  0  0
 20 29  1  0  0  0  0
 20 21  2  0  0  0  0
 21 22  1  0  0  0  0
 22 23  1  0  0  0  0
 23 24  1  0  0  0  0
 23 25  1  0  0  0  0
 23 26  1  0  0  0  0
 22 27  2  0  0  0  0
 27 28  1  0  0  0  0
 28 29  2  0  0  0  0
 18 30  2  0  0  0  0
 17 31  1  0  0  0  0
M  END
>  <MMV ID>
MMV897710

>  <Blood Stage EC50 (uM)>
10

>  <Blood Stage pEC50>
5

>  <PfATP4>
No

$$$$
OSM-S-386
  StarDrop          2D                              

 30 33  0  0  0  0  0  0  0  0999 V2000
    5.2010    6.2946    0.0000 F   0  0  0  0  0  0  0  0  0  0  0  0
    4.8961    5.3422    0.0000 C   0  0  0  0  0  0  0  0  0  0  0  0
    5.5685    4.6019    0.0000 F   0  0  0  0  0  0  0  0  0  0  0  0
    3.9189    5.1300    0.0000 O   0  0  0  0  0  0  0  0  0  0  0  0
    3.6140    4.1776    0.0000 C   0  0  0  0  0  0  0  0  0  0  0  0
    2.6371    3.9640    0.0000 C   0  0  0  0  0  0  0  0  0  0  0  0
    2.3281    3.0129    0.0000 C   0  0  0  0  0  0  0  0  0  0  0  0
    4.2888    3.4325    0.0000 C   0  0  0  0  0  0  0  0  0  0  0  0
    3.9866    2.4739    0.0000 C   0  0  0  0  0  0  0  0  0  0  0  0
    3.0029    2.2678    0.0000 C   0  0  0  0  0  0  0  0  0  0  0  0
    2.6938    1.3168    0.0000 C   0  0  0  0  0  0  0  0  0  0  0  0
    3.2858    0.5022    0.0000 N   0  0  0  0  0  0  0  0  0  0  0  0
    2.6938   -0.3126    0.0000 N   0  0  0  0  0  0  0  0  0  0  0  0
    1.7360   -0.0013    0.0000 C   0  0  0  0  0  0  0  0  0  0  0  0
    0.8680   -0.4979    0.0000 C   0  0  0  0  0  0  0  0  0  0  0  0
    0.0000    0.0000    0.0000 N   0  0  0  0  0  0  0  0  0  0  0  0
   -0.0000    1.0058    0.0000 C   0  0  0  0  0  0  0  0  0  0  0  0
    0.8680    1.5137    0.0000 C   0  0  0  0  0  0  0  0  0  0  0  0
    0.8680    2.5137    0.0000 O   0  0  0  0  0  0  0  0  0  0  0  0
    0.0020    3.0137    0.0000 C   0  0  0  0  0  0  0  0  0  0  0  0
   -0.8641    2.5137    0.0000 C   0  0  0  0  0  0  0  0  0  0  0  0
    0.0020    4.0137    0.0000 C   0  0  0  0  0  0  0  0  0  0  0  0
   -0.8700    4.5137    0.0000 C   0  0  0  0  0  0  0  0  0  0  0  0
   -0.8701    5.5138    0.0000 C   0  0  0  0  0  0  0  0  0  0  0  0
   -0.0070    6.0188    0.0000 C   0  0  0  0  0  0  0  0  0  0  0  0
   -0.0114    7.0188    0.0000 C   0  0  0  0  0  0  0  0  0  0  0  0
   -0.0158    8.0188    0.0000 N   0  0  0  0  0  0  0  0  0  0  0  0
    0.8650    5.5188    0.0000 C   0  0  0  0  0  0  0  0  0  0  0  0
    0.8739    4.5137    0.0000 C   0  0  0  0  0  0  0  0  0  0  0  0
    1.7360    1.0058    0.0000 N   0  0  0  0  0  0  0  0  0  0  0  0
  1  2  1  0  0  0  0
  2  3  1  0  0  0  0
  2  4  1  0  0  0  0
  4  5  1  0  0  0  0
  5  6  1  0  0  0  0
  6  7  2  0  0  0  0
  7 10  1  0  0  0  0
  5  8  2  0  0  0  0
  8  9  1  0  0  0  0
  9 10  2  0  0  0  0
 10 11  1  0  0  0  0
 11 30  1  0  0  0  0
 11 12  2  0  0  0  0
 12 13  1  0  0  0  0
 13 14  2  0  0  0  0
 14 30  1  0  0  0  0
 14 15  1  0  0  0  0
 15 16  2  0  0  0  0
 16 17  1  0  0  0  0
 17 18  2  0  0  0  0
 18 19  1  0  0  0  0
 19 20  1  0  0  0  0
 20 21  1  0  0  0  0
 20 22  1  0  0  0  0
 22 29  1  0  0  0  0
 22 23  2  0  0  0  0
 23 24  1  0  0  0  0
 24 25  2  0  0  0  0
 25 26  1  0  0  0  0
 26 27  3  0  0  0  0
 25 28  1  0  0  0  0
 28 29  2  0  0  0  0
 18 30  1  0  0  0  0
M  END
>  <MMV ID>
MMV897714

>  <Blood Stage EC50 (uM)>
4.8

>  <Blood Stage pEC50>
5.319

>  <PfATP4>
No

$$$$
OSM-S-387
  StarDrop          2D                              

 20 22  0  0  0  0  0  0  0  0999 V2000
    5.1959    5.0220    0.0000 F   0  0  0  0  0  0  0  0  0  0  0  0
    4.3321    4.5182    0.0000 C   0  0  0  0  0  0  0  0  0  0  0  0
    3.4631    5.0132    0.0000 C   0  0  0  0  0  0  0  0  0  0  0  0
    2.5971    4.5131    0.0000 C   0  0  0  0  0  0  0  0  0  0  0  0
    4.3350    3.5130    0.0000 C   0  0  0  0  0  0  0  0  0  0  0  0
    5.2040    3.0181    0.0000 F   0  0  0  0  0  0  0  0  0  0  0  0
    3.4690    3.0028    0.0000 C   0  0  0  0  0  0  0  0  0  0  0  0
    2.6001    3.5079    0.0000 C   0  0  0  0  0  0  0  0  0  0  0  0
    1.7340    3.0079    0.0000 C   0  0  0  0  0  0  0  0  0  0  0  0
    1.7340    2.0079    0.0000 C   0  0  0  0  0  0  0  0  0  0  0  0
    0.8680    1.5079    0.0000 O   0  0  0  0  0  0  0  0  0  0  0  0
    0.8680    0.5079    0.0000 C   0  0  0  0  0  0  0  0  0  0  0  0
    0.0000    0.0000    0.0000 C   0  0  0  0  0  0  0  0  0  0  0  0
   -0.0000   -1.0058    0.0000 N   0  0  0  0  0  0  0  0  0  0  0  0
    0.8680   -1.5037    0.0000 C   0  0  0  0  0  0  0  0  0  0  0  0
    1.7360   -1.0071    0.0000 C   0  0  0  0  0  0  0  0  0  0  0  0
    2.6938   -1.3184    0.0000 N   0  0  0  0  0  0  0  0  0  0  0  0
    3.2858   -0.5036    0.0000 N   0  0  0  0  0  0  0  0  0  0  0  0
    2.6938    0.3110    0.0000 C   0  0  0  0  0  0  0  0  0  0  0  0
    1.7360   -0.0000    0.0000 N   0  0  0  0  0  0  0  0  0  0  0  0
  1  2  1  0  0  0  0
  2  3  1  0  0  0  0
  3  4  2  0  0  0  0
  4  8  1  0  0  0  0
  2  5  2  0  0  0  0
  5  6  1  0  0  0  0
  5  7  1  0  0  0  0
  7  8  2  0  0  0  0
  8  9  1  0  0  0  0
  9 10  1  0  0  0  0
 10 11  1  0  0  0  0
 11 12  1  0  0  0  0
 12 20  1  0  0  0  0
 12 13  2  0  0  0  0
 13 14  1  0  0  0  0
 14 15  2  0  0  0  0
 15 16  1  0  0  0  0
 16 20  1  0  0  0  0
 16 17  2  0  0  0  0
 17 18  1  0  0  0  0
 18 19  2  0  0  0  0
 19 20  1  0  0  0  0
M  END
>  <MMV ID>
MMV897706

>  <Blood Stage EC50 (uM)>
10

>  <Blood Stage pEC50>
5

>  <PfATP4>
No

$$$$
OSM-S-388
  StarDrop          2D                              

 16 18  0  0  0  0  0  0  0  0999 V2000
    3.0028   -2.2695    0.0000 O   0  0  0  0  0  0  0  0  0  0  0  0
    2.6938   -1.3184    0.0000 C   0  0  0  0  0  0  0  0  0  0  0  0
    3.2858   -0.5036    0.0000 N   0  0  0  0  0  0  0  0  0  0  0  0
    2.6938    0.3110    0.0000 N   0  0  0  0  0  0  0  0  0  0  0  0
    1.7360   -0.0000    0.0000 C   0  0  0  0  0  0  0  0  0  0  0  0
    0.8680    0.5079    0.0000 C   0  0  0  0  0  0  0  0  0  0  0  0
    0.8680    1.5079    0.0000 N   0  0  0  0  0  0  0  0  0  0  0  0
    1.7355    2.0156    0.0000 C   0  0  0  0  0  0  0  0  0  0  0  0
    1.7355    3.0208    0.0000 C   0  0  0  0  0  0  0  0  0  0  0  0
    0.8680    3.5183    0.0000 C   0  0  0  0  0  0  0  0  0  0  0  0
    0.0005    3.0208    0.0000 C   0  0  0  0  0  0  0  0  0  0  0  0
    0.0005    2.0156    0.0000 C   0  0  0  0  0  0  0  0  0  0  0  0
    0.0000    0.0000    0.0000 N   0  0  0  0  0  0  0  0  0  0  0  0
   -0.0000   -1.0058    0.0000 C   0  0  0  0  0  0  0  0  0  0  0  0
    0.8680   -1.5037    0.0000 C   0  0  0  0  0  0  0  0  0  0  0  0
    1.7360   -1.0071    0.0000 N   0  0  0  0  0  0  0  0  0  0  0  0
  1  2  1  0  0  0  0
  2 16  1  0  0  0  0
  2  3  2  0  0  0  0
  3  4  1  0  0  0  0
  4  5  2  0  0  0  0
  5 16  1  0  0  0  0
  5  6  1  0  0  0  0
  6  7  1  0  0  0  0
  7 12  1  0  0  0  0
  7  8  1  0  0  0  0
  8  9  1  0  0  0  0
  9 10  1  0  0  0  0
 10 11  1  0  0  0  0
 11 12  1  0  0  0  0
  6 13  2  0  0  0  0
 13 14  1  0  0  0  0
 14 15  2  0  0  0  0
 15 16  1  0  0  0  0
M  END
>  <MMV ID>
MMV897705

>  <Blood Stage EC50 (uM)>
10

>  <Blood Stage pEC50>
5

>  <PfATP4>
No

$$$$
OSM-S-201
  StarDrop          2D                              

 30 33  0  0  0  0  0  0  0  0999 V2000
    1.7340    2.0079    0.0000 O   0  0  0  0  0  0  0  0  0  0  0  0
    0.8680    1.5079    0.0000 C   0  0  0  0  0  0  0  0  0  0  0  0
    0.0020    2.0079    0.0000 N   0  0  0  0  0  0  0  0  0  0  0  0
    0.0020    3.0079    0.0000 C   0  0  0  0  0  0  0  0  0  0  0  0
   -0.8700    3.5079    0.0000 C   0  0  0  0  0  0  0  0  0  0  0  0
   -1.7375    3.0105    0.0000 C   0  0  0  0  0  0  0  0  0  0  0  0
   -0.8611    4.5130    0.0000 C   0  0  0  0  0  0  0  0  0  0  0  0
   -1.7241    5.0181    0.0000 Cl  0  0  0  0  0  0  0  0  0  0  0  0
    0.0109    5.0130    0.0000 C   0  0  0  0  0  0  0  0  0  0  0  0
    0.8740    4.5080    0.0000 C   0  0  0  0  0  0  0  0  0  0  0  0
    0.8740    3.5079    0.0000 C   0  0  0  0  0  0  0  0  0  0  0  0
    0.8680    0.5079    0.0000 C   0  0  0  0  0  0  0  0  0  0  0  0
    0.0000    0.0000    0.0000 C   0  0  0  0  0  0  0  0  0  0  0  0
   -0.0000   -1.0058    0.0000 N   0  0  0  0  0  0  0  0  0  0  0  0
    0.8680   -1.5037    0.0000 C   0  0  0  0  0  0  0  0  0  0  0  0
    1.7360   -1.0071    0.0000 C   0  0  0  0  0  0  0  0  0  0  0  0
    1.7360   -0.0000    0.0000 N   0  0  0  0  0  0  0  0  0  0  0  0
    2.6938   -1.3184    0.0000 N   0  0  0  0  0  0  0  0  0  0  0  0
    3.2858   -0.5036    0.0000 N   0  0  0  0  0  0  0  0  0  0  0  0
    2.6938    0.3110    0.0000 C   0  0  0  0  0  0  0  0  0  0  0  0
    3.2346    1.9753    0.0000 C   0  0  0  0  0  0  0  0  0  0  0  0
    4.2185    2.1814    0.0000 C   0  0  0  0  0  0  0  0  0  0  0  0
    4.5276    3.1324    0.0000 C   0  0  0  0  0  0  0  0  0  0  0  0
    3.8628    3.8795    0.0000 C   0  0  0  0  0  0  0  0  0  0  0  0
    4.1761    4.8292    0.0000 O   0  0  0  0  0  0  0  0  0  0  0  0
    5.1551    5.0328    0.0000 C   0  0  0  0  0  0  0  0  0  0  0  0
    5.8210    4.2867    0.0000 F   0  0  0  0  0  0  0  0  0  0  0  0
    5.4684    5.9825    0.0000 F   0  0  0  0  0  0  0  0  0  0  0  0
    2.8790    3.6735    0.0000 C   0  0  0  0  0  0  0  0  0  0  0  0
    2.5599    2.7203    0.0000 C   0  0  0  0  0  0  0  0  0  0  0  0
  1  2  2  0  0  0  0
  2  3  1  0  0  0  0
  3  4  1  0  0  0  0
  4 11  1  0  0  0  0
  4  5  2  0  0  0  0
  5  6  1  0  0  0  0
  5  7  1  0  0  0  0
  7  8  1  0  0  0  0
  7  9  2  0  0  0  0
  9 10  1  0  0  0  0
 10 11  2  0  0  0  0
  2 12  1  0  0  0  0
 12 17  1  0  0  0  0
 12 13  2  0  0  0  0
 13 14  1  0  0  0  0
 14 15  2  0  0  0  0
 15 16  1  0  0  0  0
 16 17  1  0  0  0  0
 17 20  1  0  0  0  0
 16 18  2  0  0  0  0
 18 19  1  0  0  0  0
 19 20  2  0  0  0  0
 20 21  1  0  0  0  0
 21 30  1  0  0  0  0
 21 22  2  0  0  0  0
 22 23  1  0  0  0  0
 23 24  2  0  0  0  0
 24 25  1  0  0  0  0
 25 26  1  0  0  0  0
 26 27  1  0  0  0  0
 26 28  1  0  0  0  0
 24 29  1  0  0  0  0
 29 30  2  0  0  0  0
M  END
>  <MMV ID>
MMV675718

>  <Blood Stage EC50 (uM)>
4.19

>  <Blood Stage pEC50>
5.378

>  <PfATP4>
Moderate

$$$$
OSM-S-204
  StarDrop          2D                              

 30 33  0  0  0  0  0  0  0  0999 V2000
    1.7340    2.0079    0.0000 O   0  0  0  0  0  0  0  0  0  0  0  0
    0.8680    1.5079    0.0000 C   0  0  0  0  0  0  0  0  0  0  0  0
    0.0020    2.0079    0.0000 N   0  0  0  0  0  0  0  0  0  0  0  0
    0.0020    3.0079    0.0000 C   0  0  0  0  0  0  0  0  0  0  0  0
   -0.8700    3.5079    0.0000 C   0  0  0  0  0  0  0  0  0  0  0  0
   -1.7375    3.0105    0.0000 F   0  0  0  0  0  0  0  0  0  0  0  0
   -0.8611    4.5130    0.0000 C   0  0  0  0  0  0  0  0  0  0  0  0
   -1.7241    5.0181    0.0000 Cl  0  0  0  0  0  0  0  0  0  0  0  0
    0.0109    5.0130    0.0000 C   0  0  0  0  0  0  0  0  0  0  0  0
    0.8740    4.5080    0.0000 C   0  0  0  0  0  0  0  0  0  0  0  0
    0.8740    3.5079    0.0000 C   0  0  0  0  0  0  0  0  0  0  0  0
    0.8680    0.5079    0.0000 C   0  0  0  0  0  0  0  0  0  0  0  0
    0.0000    0.0000    0.0000 C   0  0  0  0  0  0  0  0  0  0  0  0
   -0.0000   -1.0058    0.0000 N   0  0  0  0  0  0  0  0  0  0  0  0
    0.8680   -1.5037    0.0000 C   0  0  0  0  0  0  0  0  0  0  0  0
    1.7360   -1.0071    0.0000 C   0  0  0  0  0  0  0  0  0  0  0  0
    1.7360   -0.0000    0.0000 N   0  0  0  0  0  0  0  0  0  0  0  0
    2.6938   -1.3184    0.0000 N   0  0  0  0  0  0  0  0  0  0  0  0
    3.2858   -0.5036    0.0000 N   0  0  0  0  0  0  0  0  0  0  0  0
    2.6938    0.3110    0.0000 C   0  0  0  0  0  0  0  0  0  0  0  0
    3.2346    1.9753    0.0000 C   0  0  0  0  0  0  0  0  0  0  0  0
    4.2185    2.1814    0.0000 C   0  0  0  0  0  0  0  0  0  0  0  0
    4.5276    3.1324    0.0000 C   0  0  0  0  0  0  0  0  0  0  0  0
    3.8628    3.8795    0.0000 C   0  0  0  0  0  0  0  0  0  0  0  0
    4.1761    4.8292    0.0000 O   0  0  0  0  0  0  0  0  0  0  0  0
    5.1551    5.0328    0.0000 C   0  0  0  0  0  0  0  0  0  0  0  0
    5.8210    4.2867    0.0000 F   0  0  0  0  0  0  0  0  0  0  0  0
    5.4684    5.9825    0.0000 F   0  0  0  0  0  0  0  0  0  0  0  0
    2.8790    3.6735    0.0000 C   0  0  0  0  0  0  0  0  0  0  0  0
    2.5599    2.7203    0.0000 C   0  0  0  0  0  0  0  0  0  0  0  0
  1  2  2  0  0  0  0
  2  3  1  0  0  0  0
  3  4  1  0  0  0  0
  4 11  1  0  0  0  0
  4  5  2  0  0  0  0
  5  6  1  0  0  0  0
  5  7  1  0  0  0  0
  7  8  1  0  0  0  0
  7  9  2  0  0  0  0
  9 10  1  0  0  0  0
 10 11  2  0  0  0  0
  2 12  1  0  0  0  0
 12 17  1  0  0  0  0
 12 13  2  0  0  0  0
 13 14  1  0  0  0  0
 14 15  2  0  0  0  0
 15 16  1  0  0  0  0
 16 17  1  0  0  0  0
 17 20  1  0  0  0  0
 16 18  2  0  0  0  0
 18 19  1  0  0  0  0
 19 20  2  0  0  0  0
 20 21  1  0  0  0  0
 21 30  1  0  0  0  0
 21 22  2  0  0  0  0
 22 23  1  0  0  0  0
 23 24  2  0  0  0  0
 24 25  1  0  0  0  0
 25 26  1  0  0  0  0
 26 27  1  0  0  0  0
 26 28  1  0  0  0  0
 24 29  1  0  0  0  0
 29 30  2  0  0  0  0
M  END
>  <MMV ID>
MMV675946

>  <Blood Stage EC50 (uM)>
0.852

>  <Blood Stage pEC50>
6.07

>  <PfATP4>
Moderate

$$$$
OSM-S-254
  StarDrop          2D                              

 30 33  0  0  0  0  0  0  0  0999 V2000
    1.7340    2.0079    0.0000 O   0  0  0  0  0  0  0  0  0  0  0  0
    0.8680    1.5079    0.0000 C   0  0  0  0  0  0  0  0  0  0  0  0
    0.0020    2.0079    0.0000 N   0  0  0  0  0  0  0  0  0  0  0  0
   -0.8641    1.5079    0.0000 C   0  0  0  0  0  0  0  0  0  0  0  0
   -0.8611    0.5028    0.0000 C   0  0  0  0  0  0  0  0  0  0  0  0
   -1.7360    0.0079    0.0000 C   0  0  0  0  0  0  0  0  0  0  0  0
   -1.7419   -0.9921    0.0000 Cl  0  0  0  0  0  0  0  0  0  0  0  0
   -2.6050    0.5131    0.0000 C   0  0  0  0  0  0  0  0  0  0  0  0
   -2.5992    1.5131    0.0000 C   0  0  0  0  0  0  0  0  0  0  0  0
   -1.7331    2.0131    0.0000 C   0  0  0  0  0  0  0  0  0  0  0  0
   -1.7316    3.0131    0.0000 C   0  0  0  0  0  0  0  0  0  0  0  0
    0.8680    0.5079    0.0000 C   0  0  0  0  0  0  0  0  0  0  0  0
    0.0000    0.0000    0.0000 C   0  0  0  0  0  0  0  0  0  0  0  0
   -0.0000   -1.0058    0.0000 N   0  0  0  0  0  0  0  0  0  0  0  0
    0.8680   -1.5037    0.0000 C   0  0  0  0  0  0  0  0  0  0  0  0
    1.7360   -1.0071    0.0000 C   0  0  0  0  0  0  0  0  0  0  0  0
    1.7360   -0.0000    0.0000 N   0  0  0  0  0  0  0  0  0  0  0  0
    2.6938   -1.3184    0.0000 N   0  0  0  0  0  0  0  0  0  0  0  0
    3.2858   -0.5036    0.0000 N   0  0  0  0  0  0  0  0  0  0  0  0
    2.6938    0.3110    0.0000 C   0  0  0  0  0  0  0  0  0  0  0  0
    3.2346    1.9753    0.0000 C   0  0  0  0  0  0  0  0  0  0  0  0
    2.5599    2.7204    0.0000 C   0  0  0  0  0  0  0  0  0  0  0  0
    2.8689    3.6715    0.0000 C   0  0  0  0  0  0  0  0  0  0  0  0
    3.8458    3.8851    0.0000 C   0  0  0  0  0  0  0  0  0  0  0  0
    4.1507    4.8375    0.0000 O   0  0  0  0  0  0  0  0  0  0  0  0
    3.4783    5.5777    0.0000 C   0  0  0  0  0  0  0  0  0  0  0  0
    2.5011    5.3655    0.0000 F   0  0  0  0  0  0  0  0  0  0  0  0
    3.7832    6.5301    0.0000 F   0  0  0  0  0  0  0  0  0  0  0  0
    4.5206    3.1400    0.0000 C   0  0  0  0  0  0  0  0  0  0  0  0
    4.2184    2.1814    0.0000 C   0  0  0  0  0  0  0  0  0  0  0  0
  1  2  2  0  0  0  0
  2  3  1  0  0  0  0
  3  4  1  0  0  0  0
  4 10  1  0  0  0  0
  4  5  2  0  0  0  0
  5  6  1  0  0  0  0
  6  7  1  0  0  0  0
  6  8  2  0  0  0  0
  8  9  1  0  0  0  0
  9 10  2  0  0  0  0
 10 11  1  0  0  0  0
  2 12  1  0  0  0  0
 12 17  1  0  0  0  0
 12 13  2  0  0  0  0
 13 14  1  0  0  0  0
 14 15  2  0  0  0  0
 15 16  1  0  0  0  0
 16 17  1  0  0  0  0
 17 20  1  0  0  0  0
 16 18  2  0  0  0  0
 18 19  1  0  0  0  0
 19 20  2  0  0  0  0
 20 21  1  0  0  0  0
 21 30  1  0  0  0  0
 21 22  2  0  0  0  0
 22 23  1  0  0  0  0
 23 24  2  0  0  0  0
 24 25  1  0  0  0  0
 25 26  1  0  0  0  0
 26 27  1  0  0  0  0
 26 28  1  0  0  0  0
 24 29  1  0  0  0  0
 29 30  2  0  0  0  0
M  END
>  <MMV ID>
MMV675947

>  <Blood Stage EC50 (uM)>
0.679

>  <Blood Stage pEC50>
6.168

>  <PfATP4>
Moderate

$$$$
OSM-S-278
  StarDrop          2D                              

 29 32  0  0  0  0  0  0  0  0999 V2000
    0.8680    3.5079    0.0000 O   0  0  0  0  0  0  0  0  0  0  0  0
    0.0020    3.0079    0.0000 C   0  0  0  0  0  0  0  0  0  0  0  0
   -0.8641    3.5079    0.0000 C   0  0  0  0  0  0  0  0  0  0  0  0
   -0.8611    4.5131    0.0000 C   0  0  0  0  0  0  0  0  0  0  0  0
   -1.7271    5.0132    0.0000 C   0  0  0  0  0  0  0  0  0  0  0  0
   -2.5961    4.5182    0.0000 C   0  0  0  0  0  0  0  0  0  0  0  0
   -2.5990    3.5130    0.0000 C   0  0  0  0  0  0  0  0  0  0  0  0
   -1.7330    3.0028    0.0000 C   0  0  0  0  0  0  0  0  0  0  0  0
    0.0020    2.0079    0.0000 C   0  0  0  0  0  0  0  0  0  0  0  0
    0.8680    1.5079    0.0000 O   0  0  0  0  0  0  0  0  0  0  0  0
    0.8680    0.5079    0.0000 C   0  0  0  0  0  0  0  0  0  0  0  0
    0.0000    0.0000    0.0000 C   0  0  0  0  0  0  0  0  0  0  0  0
   -0.0000   -1.0058    0.0000 N   0  0  0  0  0  0  0  0  0  0  0  0
    0.8680   -1.5037    0.0000 C   0  0  0  0  0  0  0  0  0  0  0  0
    1.7360   -1.0071    0.0000 C   0  0  0  0  0  0  0  0  0  0  0  0
    2.6938   -1.3184    0.0000 N   0  0  0  0  0  0  0  0  0  0  0  0
    3.2858   -0.5036    0.0000 N   0  0  0  0  0  0  0  0  0  0  0  0
    2.6938    0.3110    0.0000 C   0  0  0  0  0  0  0  0  0  0  0  0
    3.0028    1.2620    0.0000 C   0  0  0  0  0  0  0  0  0  0  0  0
    2.3313    2.0101    0.0000 C   0  0  0  0  0  0  0  0  0  0  0  0
    2.6377    2.9674    0.0000 N   0  0  0  0  0  0  0  0  0  0  0  0
    3.6224    3.1691    0.0000 C   0  0  0  0  0  0  0  0  0  0  0  0
    3.9357    4.1188    0.0000 C   0  0  0  0  0  0  0  0  0  0  0  0
    2.9860    4.4320    0.0000 F   0  0  0  0  0  0  0  0  0  0  0  0
    4.8853    3.8055    0.0000 F   0  0  0  0  0  0  0  0  0  0  0  0
    4.2489    5.0684    0.0000 F   0  0  0  0  0  0  0  0  0  0  0  0
    4.2939    2.4211    0.0000 C   0  0  0  0  0  0  0  0  0  0  0  0
    3.9807    1.4713    0.0000 C   0  0  0  0  0  0  0  0  0  0  0  0
    1.7360   -0.0000    0.0000 N   0  0  0  0  0  0  0  0  0  0  0  0
  1  2  1  0  0  0  0
  2  3  1  0  0  0  0
  3  8  1  0  0  0  0
  3  4  2  0  0  0  0
  4  5  1  0  0  0  0
  5  6  2  0  0  0  0
  6  7  1  0  0  0  0
  7  8  2  0  0  0  0
  2  9  1  0  0  0  0
  9 10  1  0  0  0  0
 10 11  1  0  0  0  0
 11 29  1  0  0  0  0
 11 12  2  0  0  0  0
 12 13  1  0  0  0  0
 13 14  2  0  0  0  0
 14 15  1  0  0  0  0
 15 29  1  0  0  0  0
 15 16  2  0  0  0  0
 16 17  1  0  0  0  0
 17 18  2  0  0  0  0
 18 19  1  0  0  0  0
 19 28  1  0  0  0  0
 19 20  2  0  0  0  0
 20 21  1  0  0  0  0
 21 22  2  0  0  0  0
 22 23  1  0  0  0  0
 23 24  1  0  0  0  0
 23 25  1  0  0  0  0
 23 26  1  0  0  0  0
 22 27  1  0  0  0  0
 27 28  2  0  0  0  0
 18 29  1  0  0  0  0
M  END
>  <MMV ID>
MMV688895

>  <Blood Stage EC50 (uM)>
4.87

>  <Blood Stage pEC50>
5.312

>  <PfATP4>
Moderate

$$$$
OSM-S-367
  StarDrop          2D                              

 29 32  0  0  0  0  0  0  0  0999 V2000
    1.7340    2.0079    0.0000 O   0  0  0  0  0  0  0  0  0  0  0  0
    0.8680    1.5079    0.0000 C   0  0  0  0  0  0  0  0  0  0  0  0
    0.0020    2.0079    0.0000 N   0  0  0  0  0  0  0  0  0  0  0  0
    0.0020    3.0079    0.0000 C   0  0  0  0  0  0  0  0  0  0  0  0
    0.8740    3.5079    0.0000 C   0  0  0  0  0  0  0  0  0  0  0  0
    0.8740    4.5080    0.0000 C   0  0  0  0  0  0  0  0  0  0  0  0
    0.0109    5.0130    0.0000 C   0  0  0  0  0  0  0  0  0  0  0  0
    0.0153    6.0130    0.0000 Cl  0  0  0  0  0  0  0  0  0  0  0  0
   -0.8611    4.5130    0.0000 C   0  0  0  0  0  0  0  0  0  0  0  0
   -0.8700    3.5079    0.0000 C   0  0  0  0  0  0  0  0  0  0  0  0
    0.8680    0.5079    0.0000 C   0  0  0  0  0  0  0  0  0  0  0  0
    0.0000    0.0000    0.0000 C   0  0  0  0  0  0  0  0  0  0  0  0
   -0.0000   -1.0058    0.0000 N   0  0  0  0  0  0  0  0  0  0  0  0
    0.8680   -1.5037    0.0000 C   0  0  0  0  0  0  0  0  0  0  0  0
    1.7360   -1.0071    0.0000 C   0  0  0  0  0  0  0  0  0  0  0  0
    2.6938   -1.3184    0.0000 N   0  0  0  0  0  0  0  0  0  0  0  0
    3.2858   -0.5036    0.0000 N   0  0  0  0  0  0  0  0  0  0  0  0
    2.6938    0.3110    0.0000 C   0  0  0  0  0  0  0  0  0  0  0  0
    3.2346    1.9753    0.0000 C   0  0  0  0  0  0  0  0  0  0  0  0
    2.5599    2.7204    0.0000 C   0  0  0  0  0  0  0  0  0  0  0  0
    2.8689    3.6715    0.0000 C   0  0  0  0  0  0  0  0  0  0  0  0
    3.8458    3.8851    0.0000 C   0  0  0  0  0  0  0  0  0  0  0  0
    4.1507    4.8375    0.0000 O   0  0  0  0  0  0  0  0  0  0  0  0
    3.4783    5.5777    0.0000 C   0  0  0  0  0  0  0  0  0  0  0  0
    2.5011    5.3655    0.0000 F   0  0  0  0  0  0  0  0  0  0  0  0
    3.7832    6.5301    0.0000 F   0  0  0  0  0  0  0  0  0  0  0  0
    4.5206    3.1400    0.0000 C   0  0  0  0  0  0  0  0  0  0  0  0
    4.2184    2.1814    0.0000 C   0  0  0  0  0  0  0  0  0  0  0  0
    1.7360   -0.0000    0.0000 N   0  0  0  0  0  0  0  0  0  0  0  0
  1  2  2  0  0  0  0
  2  3  1  0  0  0  0
  3  4  1  0  0  0  0
  4 10  1  0  0  0  0
  4  5  2  0  0  0  0
  5  6  1  0  0  0  0
  6  7  2  0  0  0  0
  7  8  1  0  0  0  0
  7  9  1  0  0  0  0
  9 10  2  0  0  0  0
  2 11  1  0  0  0  0
 11 29  1  0  0  0  0
 11 12  2  0  0  0  0
 12 13  1  0  0  0  0
 13 14  2  0  0  0  0
 14 15  1  0  0  0  0
 15 29  1  0  0  0  0
 15 16  2  0  0  0  0
 16 17  1  0  0  0  0
 17 18  2  0  0  0  0
 18 19  1  0  0  0  0
 19 28  1  0  0  0  0
 19 20  2  0  0  0  0
 20 21  1  0  0  0  0
 21 22  2  0  0  0  0
 22 23  1  0  0  0  0
 23 24  1  0  0  0  0
 24 25  1  0  0  0  0
 24 26  1  0  0  0  0
 22 27  1  0  0  0  0
 27 28  2  0  0  0  0
 18 29  1  0  0  0  0
M  END
>  <MMV ID>
MMV670246

>  <Blood Stage EC50 (uM)>
7.34

>  <Blood Stage pEC50>
5.134

>  <PfATP4>
Moderate

$$$$
OSM-S-368
  StarDrop          2D                              

 27 30  0  0  0  0  0  0  0  0999 V2000
    5.2010    6.2946    0.0000 F   0  0  0  0  0  0  0  0  0  0  0  0
    4.8961    5.3422    0.0000 C   0  0  0  0  0  0  0  0  0  0  0  0
    5.5685    4.6019    0.0000 F   0  0  0  0  0  0  0  0  0  0  0  0
    3.9189    5.1300    0.0000 O   0  0  0  0  0  0  0  0  0  0  0  0
    3.6140    4.1776    0.0000 C   0  0  0  0  0  0  0  0  0  0  0  0
    2.6371    3.9640    0.0000 C   0  0  0  0  0  0  0  0  0  0  0  0
    2.3281    3.0129    0.0000 C   0  0  0  0  0  0  0  0  0  0  0  0
    4.2888    3.4325    0.0000 C   0  0  0  0  0  0  0  0  0  0  0  0
    3.9866    2.4739    0.0000 C   0  0  0  0  0  0  0  0  0  0  0  0
    3.0029    2.2678    0.0000 C   0  0  0  0  0  0  0  0  0  0  0  0
    2.6938    1.3168    0.0000 C   0  0  0  0  0  0  0  0  0  0  0  0
    3.2858    0.5022    0.0000 N   0  0  0  0  0  0  0  0  0  0  0  0
    2.6938   -0.3126    0.0000 N   0  0  0  0  0  0  0  0  0  0  0  0
    1.7360   -0.0013    0.0000 C   0  0  0  0  0  0  0  0  0  0  0  0
    0.8680   -0.4979    0.0000 C   0  0  0  0  0  0  0  0  0  0  0  0
    0.0000    0.0000    0.0000 N   0  0  0  0  0  0  0  0  0  0  0  0
   -0.0000    1.0058    0.0000 C   0  0  0  0  0  0  0  0  0  0  0  0
    0.8680    1.5137    0.0000 C   0  0  0  0  0  0  0  0  0  0  0  0
    0.8680    2.5137    0.0000 O   0  0  0  0  0  0  0  0  0  0  0  0
    0.0020    3.0137    0.0000 C   0  0  0  0  0  0  0  0  0  0  0  0
    0.0020    4.0137    0.0000 C   0  0  0  0  0  0  0  0  0  0  0  0
   -0.8700    4.5137    0.0000 C   0  0  0  0  0  0  0  0  0  0  0  0
   -0.8701    5.5138    0.0000 C   0  0  0  0  0  0  0  0  0  0  0  0
   -0.0070    6.0188    0.0000 C   0  0  0  0  0  0  0  0  0  0  0  0
    0.8650    5.5188    0.0000 C   0  0  0  0  0  0  0  0  0  0  0  0
    0.8739    4.5137    0.0000 C   0  0  0  0  0  0  0  0  0  0  0  0
    1.7360    1.0058    0.0000 N   0  0  0  0  0  0  0  0  0  0  0  0
  1  2  1  0  0  0  0
  2  3  1  0  0  0  0
  2  4  1  0  0  0  0
  4  5  1  0  0  0  0
  5  6  1  0  0  0  0
  6  7  2  0  0  0  0
  7 10  1  0  0  0  0
  5  8  2  0  0  0  0
  8  9  1  0  0  0  0
  9 10  2  0  0  0  0
 10 11  1  0  0  0  0
 11 27  1  0  0  0  0
 11 12  2  0  0  0  0
 12 13  1  0  0  0  0
 13 14  2  0  0  0  0
 14 27  1  0  0  0  0
 14 15  1  0  0  0  0
 15 16  2  0  0  0  0
 16 17  1  0  0  0  0
 17 18  2  0  0  0  0
 18 19  1  0  0  0  0
 19 20  1  0  0  0  0
 20 21  1  0  0  0  0
 21 26  1  0  0  0  0
 21 22  2  0  0  0  0
 22 23  1  0  0  0  0
 23 24  2  0  0  0  0
 24 25  1  0  0  0  0
 25 26  2  0  0  0  0
 18 27  1  0  0  0  0
M  END
>  <MMV ID>
MMV897697

>  <Blood Stage EC50 (uM)>
2.24

>  <Blood Stage pEC50>
5.65

>  <PfATP4>
Moderate

$$$$
OSM-S-378
  StarDrop          2D                              

 31 34  0  0  0  0  0  0  0  0999 V2000
   -1.7419    6.7579    0.0000 F   0  0  0  0  0  0  0  0  0  0  0  0
   -1.7360    5.7579    0.0000 C   0  0  0  0  0  0  0  0  0  0  0  0
   -2.6050    5.2527    0.0000 C   0  0  0  0  0  0  0  0  0  0  0  0
   -3.4732    5.7489    0.0000 F   0  0  0  0  0  0  0  0  0  0  0  0
   -2.5992    4.2527    0.0000 C   0  0  0  0  0  0  0  0  0  0  0  0
   -1.7331    3.7527    0.0000 C   0  0  0  0  0  0  0  0  0  0  0  0
   -0.8641    4.2579    0.0000 C   0  0  0  0  0  0  0  0  0  0  0  0
    0.0020    3.7579    0.0000 C   0  0  0  0  0  0  0  0  0  0  0  0
    0.8680    4.2579    0.0000 N   0  0  0  0  0  0  0  0  0  0  0  0
    0.8680    5.2579    0.0000 C   0  0  0  0  0  0  0  0  0  0  0  0
    1.7340    3.7579    0.0000 C   0  0  0  0  0  0  0  0  0  0  0  0
    0.0020    2.7579    0.0000 C   0  0  0  0  0  0  0  0  0  0  0  0
    0.8680    2.2579    0.0000 O   0  0  0  0  0  0  0  0  0  0  0  0
    0.8680    0.5079    0.0000 C   0  0  0  0  0  0  0  0  0  0  0  0
    0.0000    0.0000    0.0000 C   0  0  0  0  0  0  0  0  0  0  0  0
   -0.0000   -1.0058    0.0000 N   0  0  0  0  0  0  0  0  0  0  0  0
    0.8680   -1.5037    0.0000 C   0  0  0  0  0  0  0  0  0  0  0  0
    1.7360   -1.0071    0.0000 C   0  0  0  0  0  0  0  0  0  0  0  0
    2.6938   -1.3184    0.0000 N   0  0  0  0  0  0  0  0  0  0  0  0
    3.2858   -0.5036    0.0000 N   0  0  0  0  0  0  0  0  0  0  0  0
    2.6938    0.3110    0.0000 C   0  0  0  0  0  0  0  0  0  0  0  0
    3.0028    1.2620    0.0000 C   0  0  0  0  0  0  0  0  0  0  0  0
    2.3281    2.0071    0.0000 C   0  0  0  0  0  0  0  0  0  0  0  0
    2.6371    2.9582    0.0000 C   0  0  0  0  0  0  0  0  0  0  0  0
    3.6140    3.1718    0.0000 C   0  0  0  0  0  0  0  0  0  0  0  0
    3.9189    4.1242    0.0000 C   0  0  0  0  0  0  0  0  0  0  0  0
    4.2238    5.0766    0.0000 N   0  0  0  0  0  0  0  0  0  0  0  0
    4.2888    2.4267    0.0000 C   0  0  0  0  0  0  0  0  0  0  0  0
    3.9866    1.4681    0.0000 C   0  0  0  0  0  0  0  0  0  0  0  0
    1.7360   -0.0000    0.0000 N   0  0  0  0  0  0  0  0  0  0  0  0
   -0.8611    5.2630    0.0000 C   0  0  0  0  0  0  0  0  0  0  0  0
  1  2  1  0  0  0  0
  2 31  1  0  0  0  0
  2  3  2  0  0  0  0
  3  4  1  0  0  0  0
  3  5  1  0  0  0  0
  5  6  2  0  0  0  0
  6  7  1  0  0  0  0
  7  8  1  0  0  0  0
  8  9  1  0  0  0  0
  9 10  1  0  0  0  0
  9 11  1  0  0  0  0
  8 12  1  0  0  0  0
 12 13  1  0  0  0  0
 13 14  1  0  0  0  0
 14 30  1  0  0  0  0
 14 15  2  0  0  0  0
 15 16  1  0  0  0  0
 16 17  2  0  0  0  0
 17 18  1  0  0  0  0
 18 30  1  0  0  0  0
 18 19  2  0  0  0  0
 19 20  1  0  0  0  0
 20 21  2  0  0  0  0
 21 22  1  0  0  0  0
 22 29  1  0  0  0  0
 22 23  2  0  0  0  0
 23 24  1  0  0  0  0
 24 25  2  0  0  0  0
 25 26  1  0  0  0  0
 26 27  3  0  0  0  0
 25 28  1  0  0  0  0
 28 29  2  0  0  0  0
 21 30  1  0  0  0  0
  7 31  2  0  0  0  0
M  END
>  <MMV ID>
MMV897707

>  <Blood Stage EC50 (uM)>
10

>  <Blood Stage pEC50>
5

>  <PfATP4>
Moderate

$$$$
OSM-S-385
  StarDrop          2D                              

 30 33  0  0  0  0  0  0  0  0999 V2000
    5.2010    6.2946    0.0000 F   0  0  0  0  0  0  0  0  0  0  0  0
    4.8961    5.3422    0.0000 C   0  0  0  0  0  0  0  0  0  0  0  0
    5.5685    4.6019    0.0000 F   0  0  0  0  0  0  0  0  0  0  0  0
    3.9189    5.1300    0.0000 O   0  0  0  0  0  0  0  0  0  0  0  0
    3.6140    4.1776    0.0000 C   0  0  0  0  0  0  0  0  0  0  0  0
    2.6371    3.9640    0.0000 C   0  0  0  0  0  0  0  0  0  0  0  0
    2.3281    3.0129    0.0000 C   0  0  0  0  0  0  0  0  0  0  0  0
    4.2888    3.4325    0.0000 C   0  0  0  0  0  0  0  0  0  0  0  0
    3.9866    2.4739    0.0000 C   0  0  0  0  0  0  0  0  0  0  0  0
    3.0029    2.2678    0.0000 C   0  0  0  0  0  0  0  0  0  0  0  0
    2.6938    1.3168    0.0000 C   0  0  0  0  0  0  0  0  0  0  0  0
    3.2858    0.5022    0.0000 N   0  0  0  0  0  0  0  0  0  0  0  0
    2.6938   -0.3126    0.0000 N   0  0  0  0  0  0  0  0  0  0  0  0
    1.7360   -0.0013    0.0000 C   0  0  0  0  0  0  0  0  0  0  0  0
    0.8680   -0.4979    0.0000 C   0  0  0  0  0  0  0  0  0  0  0  0
    0.0000    0.0000    0.0000 N   0  0  0  0  0  0  0  0  0  0  0  0
   -0.0000    1.0058    0.0000 C   0  0  0  0  0  0  0  0  0  0  0  0
    0.8680    1.5137    0.0000 C   0  0  0  0  0  0  0  0  0  0  0  0
    0.8680    2.5137    0.0000 O   0  0  0  0  0  0  0  0  0  0  0  0
    0.0020    3.0137    0.0000 C   0  0  0  0  0  0  0  0  0  0  0  0
   -0.8641    2.5137    0.0000 C   0  0  0  0  0  0  0  0  0  0  0  0
    0.0020    4.0137    0.0000 C   0  0  0  0  0  0  0  0  0  0  0  0
    0.8740    4.5137    0.0000 C   0  0  0  0  0  0  0  0  0  0  0  0
    0.8740    5.5138    0.0000 C   0  0  0  0  0  0  0  0  0  0  0  0
    0.0109    6.0188    0.0000 C   0  0  0  0  0  0  0  0  0  0  0  0
    0.0153    7.0188    0.0000 F   0  0  0  0  0  0  0  0  0  0  0  0
   -0.8611    5.5188    0.0000 C   0  0  0  0  0  0  0  0  0  0  0  0
   -1.7241    6.0239    0.0000 F   0  0  0  0  0  0  0  0  0  0  0  0
   -0.8700    4.5137    0.0000 C   0  0  0  0  0  0  0  0  0  0  0  0
    1.7360    1.0058    0.0000 N   0  0  0  0  0  0  0  0  0  0  0  0
  1  2  1  0  0  0  0
  2  3  1  0  0  0  0
  2  4  1  0  0  0  0
  4  5  1  0  0  0  0
  5  6  1  0  0  0  0
  6  7  2  0  0  0  0
  7 10  1  0  0  0  0
  5  8  2  0  0  0  0
  8  9  1  0  0  0  0
  9 10  2  0  0  0  0
 10 11  1  0  0  0  0
 11 30  1  0  0  0  0
 11 12  2  0  0  0  0
 12 13  1  0  0  0  0
 13 14  2  0  0  0  0
 14 30  1  0  0  0  0
 14 15  1  0  0  0  0
 15 16  2  0  0  0  0
 16 17  1  0  0  0  0
 17 18  2  0  0  0  0
 18 19  1  0  0  0  0
 19 20  1  0  0  0  0
 20 21  1  0  0  0  0
 20 22  1  0  0  0  0
 22 29  1  0  0  0  0
 22 23  2  0  0  0  0
 23 24  1  0  0  0  0
 24 25  2  0  0  0  0
 25 26  1  0  0  0  0
 25 27  1  0  0  0  0
 27 28  1  0  0  0  0
 27 29  2  0  0  0  0
 18 30  1  0  0  0  0
M  END
>  <MMV ID>
MMV897713

>  <Blood Stage EC50 (uM)>
8.5

>  <Blood Stage pEC50>
5.071

>  <PfATP4>
Moderate

$$$$
OSM-X-013
  StarDrop          2D                              

 34 37  0  0  0  0  0  0  0  0999 V2000
    5.4328    7.0078    0.0000 F   0  0  0  0  0  0  0  0  0  0  0  0
    5.1279    6.0554    0.0000 C   0  0  0  0  0  0  0  0  0  0  0  0
    5.8003    5.3152    0.0000 F   0  0  0  0  0  0  0  0  0  0  0  0
    4.1507    5.8433    0.0000 O   0  0  0  0  0  0  0  0  0  0  0  0
    3.8458    4.8909    0.0000 C   0  0  0  0  0  0  0  0  0  0  0  0
    2.8689    4.6773    0.0000 C   0  0  0  0  0  0  0  0  0  0  0  0
    2.5599    3.7262    0.0000 C   0  0  0  0  0  0  0  0  0  0  0  0
    4.5206    4.1458    0.0000 C   0  0  0  0  0  0  0  0  0  0  0  0
    4.2184    3.1872    0.0000 C   0  0  0  0  0  0  0  0  0  0  0  0
    3.2346    2.9811    0.0000 C   0  0  0  0  0  0  0  0  0  0  0  0
    2.6938    1.3168    0.0000 C   0  0  0  0  0  0  0  0  0  0  0  0
    3.2858    0.5022    0.0000 N   0  0  0  0  0  0  0  0  0  0  0  0
    2.6938   -0.3126    0.0000 N   0  0  0  0  0  0  0  0  0  0  0  0
    1.7360   -0.0013    0.0000 C   0  0  0  0  0  0  0  0  0  0  0  0
    0.8680   -0.4979    0.0000 C   0  0  0  0  0  0  0  0  0  0  0  0
    0.0000    0.0000    0.0000 N   0  0  0  0  0  0  0  0  0  0  0  0
   -0.0000    1.0058    0.0000 C   0  0  0  0  0  0  0  0  0  0  0  0
    0.8680    1.5137    0.0000 C   0  0  0  0  0  0  0  0  0  0  0  0
    0.8680    2.5137    0.0000 C   0  0  0  0  0  0  0  0  0  0  0  0
    0.0020    3.0137    0.0000 N   0  0  0  0  0  0  0  0  0  0  0  0
    0.0020    4.0137    0.0000 C   0  0  0  0  0  0  0  0  0  0  0  0
   -0.8641    4.5137    0.0000 C   0  0  0  0  0  0  0  0  0  0  0  0
   -0.8611    5.5188    0.0000 C   0  0  0  0  0  0  0  0  0  0  0  0
    0.0035    6.0214    0.0000 Cl  0  0  0  0  0  0  0  0  0  0  0  0
   -1.7360    6.0137    0.0000 C   0  0  0  0  0  0  0  0  0  0  0  0
   -1.7419    7.0137    0.0000 C   0  0  0  0  0  0  0  0  0  0  0  0
   -2.7419    7.0078    0.0000 F   0  0  0  0  0  0  0  0  0  0  0  0
   -0.7419    7.0196    0.0000 F   0  0  0  0  0  0  0  0  0  0  0  0
   -1.7478    8.0137    0.0000 F   0  0  0  0  0  0  0  0  0  0  0  0
   -2.6050    5.5085    0.0000 C   0  0  0  0  0  0  0  0  0  0  0  0
   -2.5992    4.5085    0.0000 C   0  0  0  0  0  0  0  0  0  0  0  0
   -1.7331    4.0085    0.0000 C   0  0  0  0  0  0  0  0  0  0  0  0
    1.7340    3.0137    0.0000 O   0  0  0  0  0  0  0  0  0  0  0  0
    1.7360    1.0058    0.0000 N   0  0  0  0  0  0  0  0  0  0  0  0
  1  2  1  0  0  0  0
  2  3  1  0  0  0  0
  2  4  1  0  0  0  0
  4  5  1  0  0  0  0
  5  6  1  0  0  0  0
  6  7  2  0  0  0  0
  7 10  1  0  0  0  0
  5  8  2  0  0  0  0
  8  9  1  0  0  0  0
  9 10  2  0  0  0  0
 10 11  1  0  0  0  0
 11 34  1  0  0  0  0
 11 12  2  0  0  0  0
 12 13  1  0  0  0  0
 13 14  2  0  0  0  0
 14 34  1  0  0  0  0
 14 15  1  0  0  0  0
 15 16  2  0  0  0  0
 16 17  1  0  0  0  0
 17 18  2  0  0  0  0
 18 19  1  0  0  0  0
 19 20  1  0  0  0  0
 20 21  1  0  0  0  0
 21 22  1  0  0  0  0
 22 32  1  0  0  0  0
 22 23  2  0  0  0  0
 23 24  1  0  0  0  0
 23 25  1  0  0  0  0
 25 26  1  0  0  0  0
 26 27  1  0  0  0  0
 26 28  1  0  0  0  0
 26 29  1  0  0  0  0
 25 30  2  0  0  0  0
 30 31  1  0  0  0  0
 31 32  2  0  0  0  0
 19 33  2  0  0  0  0
 18 34  1  0  0  0  0
M  END
>  <MMV ID>
MMV671677

>  <Blood Stage EC50 (uM)>
0.309

>  <Blood Stage pEC50>
6.51

>  <PfATP4>
Yes

$$$$
OSM-S-175
  StarDrop          2D                              

 32 35  0  0  0  0  0  0  0  0999 V2000
    5.5806    4.5820    0.0000 F   0  0  0  0  0  0  0  0  0  0  0  0
    4.9147    5.3281    0.0000 C   0  0  0  0  0  0  0  0  0  0  0  0
    3.9357    5.1246    0.0000 O   0  0  0  0  0  0  0  0  0  0  0  0
    3.6224    4.1749    0.0000 C   0  0  0  0  0  0  0  0  0  0  0  0
    4.2939    3.4269    0.0000 C   0  0  0  0  0  0  0  0  0  0  0  0
    3.9807    2.4771    0.0000 C   0  0  0  0  0  0  0  0  0  0  0  0
    3.0029    2.2678    0.0000 C   0  0  0  0  0  0  0  0  0  0  0  0
    2.6938    1.3168    0.0000 C   0  0  0  0  0  0  0  0  0  0  0  0
    3.2858    0.5022    0.0000 N   0  0  0  0  0  0  0  0  0  0  0  0
    2.6938   -0.3126    0.0000 N   0  0  0  0  0  0  0  0  0  0  0  0
    1.7360   -0.0013    0.0000 C   0  0  0  0  0  0  0  0  0  0  0  0
    0.8680   -0.4979    0.0000 C   0  0  0  0  0  0  0  0  0  0  0  0
    0.0000    0.0000    0.0000 N   0  0  0  0  0  0  0  0  0  0  0  0
   -0.0000    1.0058    0.0000 C   0  0  0  0  0  0  0  0  0  0  0  0
    0.8680    1.5137    0.0000 C   0  0  0  0  0  0  0  0  0  0  0  0
    1.7360    1.0058    0.0000 N   0  0  0  0  0  0  0  0  0  0  0  0
    0.8680    3.2637    0.0000 C   0  0  0  0  0  0  0  0  0  0  0  0
    0.0020    3.7637    0.0000 N   0  0  0  0  0  0  0  0  0  0  0  0
    0.0020    4.7637    0.0000 C   0  0  0  0  0  0  0  0  0  0  0  0
    0.8695    5.2612    0.0000 C   0  0  0  0  0  0  0  0  0  0  0  0
    0.8695    6.2664    0.0000 C   0  0  0  0  0  0  0  0  0  0  0  0
    1.7370    6.7638    0.0000 C   0  0  0  0  0  0  0  0  0  0  0  0
    1.2395    7.6313    0.0000 F   0  0  0  0  0  0  0  0  0  0  0  0
    2.2344    5.8963    0.0000 F   0  0  0  0  0  0  0  0  0  0  0  0
    2.6045    7.2613    0.0000 F   0  0  0  0  0  0  0  0  0  0  0  0
    0.0020    6.7741    0.0000 N   0  0  0  0  0  0  0  0  0  0  0  0
   -0.8655    6.2664    0.0000 C   0  0  0  0  0  0  0  0  0  0  0  0
   -0.8655    5.2612    0.0000 C   0  0  0  0  0  0  0  0  0  0  0  0
    1.7340    3.7637    0.0000 O   0  0  0  0  0  0  0  0  0  0  0  0
    2.3314    3.0159    0.0000 C   0  0  0  0  0  0  0  0  0  0  0  0
    2.6377    3.9732    0.0000 C   0  0  0  0  0  0  0  0  0  0  0  0
    5.2280    6.2778    0.0000 F   0  0  0  0  0  0  0  0  0  0  0  0
  1  2  1  0  0  0  0
  2  3  1  0  0  0  0
  3  4  1  0  0  0  0
  4 31  1  0  0  0  0
  4  5  2  0  0  0  0
  5  6  1  0  0  0  0
  6  7  2  0  0  0  0
  7  8  1  0  0  0  0
  8 16  1  0  0  0  0
  8  9  2  0  0  0  0
  9 10  1  0  0  0  0
 10 11  2  0  0  0  0
 11 16  1  0  0  0  0
 11 12  1  0  0  0  0
 12 13  2  0  0  0  0
 13 14  1  0  0  0  0
 14 15  2  0  0  0  0
 15 16  1  0  0  0  0
 15 17  1  0  0  0  0
 17 18  1  0  0  0  0
 18 19  1  0  0  0  0
 19 28  1  0  0  0  0
 19 20  2  0  0  0  0
 20 21  1  0  0  0  0
 21 22  1  0  0  0  0
 22 23  1  0  0  0  0
 22 24  1  0  0  0  0
 22 25  1  0  0  0  0
 21 26  2  0  0  0  0
 26 27  1  0  0  0  0
 27 28  2  0  0  0  0
 17 29  2  0  0  0  0
  7 30  1  0  0  0  0
 30 31  2  0  0  0  0
  2 32  1  0  0  0  0
M  END
>  <MMV ID>
MMV670944

>  <Blood Stage EC50 (uM)>
0.296

>  <Blood Stage pEC50>
6.529

>  <PfATP4>
Yes

$$$$
OSM-S-202
  StarDrop          2D                              

 29 32  0  0  0  0  0  0  0  0999 V2000
    5.4328    7.0078    0.0000 F   0  0  0  0  0  0  0  0  0  0  0  0
    5.1279    6.0554    0.0000 C   0  0  0  0  0  0  0  0  0  0  0  0
    5.8003    5.3152    0.0000 F   0  0  0  0  0  0  0  0  0  0  0  0
    4.1507    5.8433    0.0000 O   0  0  0  0  0  0  0  0  0  0  0  0
    3.8458    4.8909    0.0000 C   0  0  0  0  0  0  0  0  0  0  0  0
    2.8689    4.6773    0.0000 C   0  0  0  0  0  0  0  0  0  0  0  0
    2.5599    3.7262    0.0000 C   0  0  0  0  0  0  0  0  0  0  0  0
    4.5206    4.1458    0.0000 C   0  0  0  0  0  0  0  0  0  0  0  0
    4.2184    3.1872    0.0000 C   0  0  0  0  0  0  0  0  0  0  0  0
    3.2346    2.9811    0.0000 C   0  0  0  0  0  0  0  0  0  0  0  0
    2.6938    1.3168    0.0000 C   0  0  0  0  0  0  0  0  0  0  0  0
    3.2858    0.5022    0.0000 N   0  0  0  0  0  0  0  0  0  0  0  0
    2.6938   -0.3126    0.0000 N   0  0  0  0  0  0  0  0  0  0  0  0
    1.7360   -0.0013    0.0000 C   0  0  0  0  0  0  0  0  0  0  0  0
    0.8680   -0.4979    0.0000 C   0  0  0  0  0  0  0  0  0  0  0  0
    0.0000    0.0000    0.0000 N   0  0  0  0  0  0  0  0  0  0  0  0
   -0.0000    1.0058    0.0000 C   0  0  0  0  0  0  0  0  0  0  0  0
    0.8680    1.5137    0.0000 C   0  0  0  0  0  0  0  0  0  0  0  0
    0.8680    2.5137    0.0000 C   0  0  0  0  0  0  0  0  0  0  0  0
    0.0020    3.0137    0.0000 N   0  0  0  0  0  0  0  0  0  0  0  0
    0.0020    4.0137    0.0000 C   0  0  0  0  0  0  0  0  0  0  0  0
    0.8740    4.5137    0.0000 C   0  0  0  0  0  0  0  0  0  0  0  0
    0.8740    5.5138    0.0000 C   0  0  0  0  0  0  0  0  0  0  0  0
    0.0109    6.0188    0.0000 C   0  0  0  0  0  0  0  0  0  0  0  0
   -0.8611    5.5188    0.0000 C   0  0  0  0  0  0  0  0  0  0  0  0
   -1.7241    6.0239    0.0000 Cl  0  0  0  0  0  0  0  0  0  0  0  0
   -0.8700    4.5137    0.0000 C   0  0  0  0  0  0  0  0  0  0  0  0
    1.7340    3.0137    0.0000 O   0  0  0  0  0  0  0  0  0  0  0  0
    1.7360    1.0058    0.0000 N   0  0  0  0  0  0  0  0  0  0  0  0
  1  2  1  0  0  0  0
  2  3  1  0  0  0  0
  2  4  1  0  0  0  0
  4  5  1  0  0  0  0
  5  6  1  0  0  0  0
  6  7  2  0  0  0  0
  7 10  1  0  0  0  0
  5  8  2  0  0  0  0
  8  9  1  0  0  0  0
  9 10  2  0  0  0  0
 10 11  1  0  0  0  0
 11 29  1  0  0  0  0
 11 12  2  0  0  0  0
 12 13  1  0  0  0  0
 13 14  2  0  0  0  0
 14 29  1  0  0  0  0
 14 15  1  0  0  0  0
 15 16  2  0  0  0  0
 16 17  1  0  0  0  0
 17 18  2  0  0  0  0
 18 19  1  0  0  0  0
 19 20  1  0  0  0  0
 20 21  1  0  0  0  0
 21 27  1  0  0  0  0
 21 22  2  0  0  0  0
 22 23  1  0  0  0  0
 23 24  2  0  0  0  0
 24 25  1  0  0  0  0
 25 26  1  0  0  0  0
 25 27  2  0  0  0  0
 19 28  2  0  0  0  0
 18 29  1  0  0  0  0
M  END
>  <MMV ID>
MMV669542

>  <Blood Stage EC50 (uM)>
0.185

>  <Blood Stage pEC50>
6.733

>  <PfATP4>
Yes

$$$$
OSM-S-218
  StarDrop          2D                              

 30 33  0  0  0  0  0  0  0  0999 V2000
   -3.4732    4.9989    0.0000 F   0  0  0  0  0  0  0  0  0  0  0  0
   -2.6050    4.5027    0.0000 C   0  0  0  0  0  0  0  0  0  0  0  0
   -2.5992    3.5027    0.0000 C   0  0  0  0  0  0  0  0  0  0  0  0
   -1.7331    3.0027    0.0000 C   0  0  0  0  0  0  0  0  0  0  0  0
   -1.7360    5.0079    0.0000 C   0  0  0  0  0  0  0  0  0  0  0  0
   -1.7419    6.0079    0.0000 F   0  0  0  0  0  0  0  0  0  0  0  0
   -0.8611    4.5130    0.0000 C   0  0  0  0  0  0  0  0  0  0  0  0
   -0.8641    3.5079    0.0000 C   0  0  0  0  0  0  0  0  0  0  0  0
    0.0020    3.0079    0.0000 C   0  0  0  0  0  0  0  0  0  0  0  0
    0.8680    3.5079    0.0000 O   0  0  0  0  0  0  0  0  0  0  0  0
    0.8680    4.5079    0.0000 C   0  0  0  0  0  0  0  0  0  0  0  0
    0.0020    2.0079    0.0000 C   0  0  0  0  0  0  0  0  0  0  0  0
    0.8680    1.5079    0.0000 O   0  0  0  0  0  0  0  0  0  0  0  0
    0.8680    0.5079    0.0000 C   0  0  0  0  0  0  0  0  0  0  0  0
    0.0000    0.0000    0.0000 C   0  0  0  0  0  0  0  0  0  0  0  0
   -0.0000   -1.0058    0.0000 N   0  0  0  0  0  0  0  0  0  0  0  0
    0.8680   -1.5037    0.0000 C   0  0  0  0  0  0  0  0  0  0  0  0
    1.7360   -1.0071    0.0000 C   0  0  0  0  0  0  0  0  0  0  0  0
    2.6938   -1.3184    0.0000 N   0  0  0  0  0  0  0  0  0  0  0  0
    3.2858   -0.5036    0.0000 N   0  0  0  0  0  0  0  0  0  0  0  0
    2.6938    0.3110    0.0000 C   0  0  0  0  0  0  0  0  0  0  0  0
    3.0028    1.2620    0.0000 C   0  0  0  0  0  0  0  0  0  0  0  0
    2.3281    2.0071    0.0000 C   0  0  0  0  0  0  0  0  0  0  0  0
    2.6371    2.9582    0.0000 C   0  0  0  0  0  0  0  0  0  0  0  0
    3.6140    3.1718    0.0000 C   0  0  0  0  0  0  0  0  0  0  0  0
    3.9189    4.1242    0.0000 C   0  0  0  0  0  0  0  0  0  0  0  0
    4.2238    5.0766    0.0000 N   0  0  0  0  0  0  0  0  0  0  0  0
    4.2888    2.4267    0.0000 C   0  0  0  0  0  0  0  0  0  0  0  0
    3.9866    1.4681    0.0000 C   0  0  0  0  0  0  0  0  0  0  0  0
    1.7360   -0.0000    0.0000 N   0  0  0  0  0  0  0  0  0  0  0  0
  1  2  1  0  0  0  0
  2  3  1  0  0  0  0
  3  4  2  0  0  0  0
  4  8  1  0  0  0  0
  2  5  2  0  0  0  0
  5  6  1  0  0  0  0
  5  7  1  0  0  0  0
  7  8  2  0  0  0  0
  8  9  1  0  0  0  0
  9 10  1  0  0  0  0
 10 11  1  0  0  0  0
  9 12  1  0  0  0  0
 12 13  1  0  0  0  0
 13 14  1  0  0  0  0
 14 30  1  0  0  0  0
 14 15  2  0  0  0  0
 15 16  1  0  0  0  0
 16 17  2  0  0  0  0
 17 18  1  0  0  0  0
 18 30  1  0  0  0  0
 18 19  2  0  0  0  0
 19 20  1  0  0  0  0
 20 21  2  0  0  0  0
 21 22  1  0  0  0  0
 22 29  1  0  0  0  0
 22 23  2  0  0  0  0
 23 24  1  0  0  0  0
 24 25  2  0  0  0  0
 25 26  1  0  0  0  0
 26 27  3  0  0  0  0
 25 28  1  0  0  0  0
 28 29  2  0  0  0  0
 21 30  1  0  0  0  0
M  END
>  <MMV ID>
MMV897709

>  <Blood Stage EC50 (uM)>
0.146

>  <Blood Stage pEC50>
6.836

>  <PfATP4>
Yes

$$$$
OSM-S-272
  StarDrop          2D                              

 27 30  0  0  0  0  0  0  0  0999 V2000
   -3.4680    3.0181    0.0000 F   0  0  0  0  0  0  0  0  0  0  0  0
   -2.5990    3.5130    0.0000 C   0  0  0  0  0  0  0  0  0  0  0  0
   -2.5961    4.5182    0.0000 C   0  0  0  0  0  0  0  0  0  0  0  0
   -3.4599    5.0220    0.0000 F   0  0  0  0  0  0  0  0  0  0  0  0
   -1.7271    5.0132    0.0000 C   0  0  0  0  0  0  0  0  0  0  0  0
   -0.8611    4.5131    0.0000 C   0  0  0  0  0  0  0  0  0  0  0  0
   -0.8641    3.5079    0.0000 C   0  0  0  0  0  0  0  0  0  0  0  0
    0.0020    3.0079    0.0000 C   0  0  0  0  0  0  0  0  0  0  0  0
    0.0020    2.0079    0.0000 C   0  0  0  0  0  0  0  0  0  0  0  0
    0.8680    1.5079    0.0000 O   0  0  0  0  0  0  0  0  0  0  0  0
    0.8680    0.5079    0.0000 C   0  0  0  0  0  0  0  0  0  0  0  0
    0.0000    0.0000    0.0000 C   0  0  0  0  0  0  0  0  0  0  0  0
   -0.0000   -1.0058    0.0000 N   0  0  0  0  0  0  0  0  0  0  0  0
    0.8680   -1.5037    0.0000 C   0  0  0  0  0  0  0  0  0  0  0  0
    1.7360   -1.0071    0.0000 C   0  0  0  0  0  0  0  0  0  0  0  0
    2.6938   -1.3184    0.0000 N   0  0  0  0  0  0  0  0  0  0  0  0
    3.2858   -0.5036    0.0000 N   0  0  0  0  0  0  0  0  0  0  0  0
    2.6938    0.3110    0.0000 C   0  0  0  0  0  0  0  0  0  0  0  0
    3.0028    1.2620    0.0000 C   0  0  0  0  0  0  0  0  0  0  0  0
    2.3281    2.0071    0.0000 C   0  0  0  0  0  0  0  0  0  0  0  0
    2.6371    2.9582    0.0000 C   0  0  0  0  0  0  0  0  0  0  0  0
    3.6140    3.1718    0.0000 C   0  0  0  0  0  0  0  0  0  0  0  0
    3.9189    4.1242    0.0000 Cl  0  0  0  0  0  0  0  0  0  0  0  0
    4.2888    2.4267    0.0000 C   0  0  0  0  0  0  0  0  0  0  0  0
    3.9866    1.4681    0.0000 C   0  0  0  0  0  0  0  0  0  0  0  0
    1.7360   -0.0000    0.0000 N   0  0  0  0  0  0  0  0  0  0  0  0
   -1.7330    3.0028    0.0000 C   0  0  0  0  0  0  0  0  0  0  0  0
  1  2  1  0  0  0  0
  2 27  1  0  0  0  0
  2  3  2  0  0  0  0
  3  4  1  0  0  0  0
  3  5  1  0  0  0  0
  5  6  2  0  0  0  0
  6  7  1  0  0  0  0
  7  8  1  0  0  0  0
  8  9  1  0  0  0  0
  9 10  1  0  0  0  0
 10 11  1  0  0  0  0
 11 26  1  0  0  0  0
 11 12  2  0  0  0  0
 12 13  1  0  0  0  0
 13 14  2  0  0  0  0
 14 15  1  0  0  0  0
 15 26  1  0  0  0  0
 15 16  2  0  0  0  0
 16 17  1  0  0  0  0
 17 18  2  0  0  0  0
 18 19  1  0  0  0  0
 19 25  1  0  0  0  0
 19 20  2  0  0  0  0
 20 21  1  0  0  0  0
 21 22  2  0  0  0  0
 22 23  1  0  0  0  0
 22 24  1  0  0  0  0
 24 25  2  0  0  0  0
 18 26  1  0  0  0  0
  7 27  2  0  0  0  0
M  END
>  <MMV ID>
MMV639565

>  <Blood Stage EC50 (uM)>
0.143

>  <Blood Stage pEC50>
6.845

>  <PfATP4>
Yes

$$$$
OSM-S-279
  StarDrop          2D                              

 29 32  0  0  0  0  0  0  0  0999 V2000
    0.8680    3.5079    0.0000 O   0  0  0  0  0  0  0  0  0  0  0  0
    0.0020    3.0079    0.0000 C   0  0  0  0  0  0  0  0  0  0  0  0
   -0.8641    3.5079    0.0000 C   0  0  0  0  0  0  0  0  0  0  0  0
   -0.8611    4.5131    0.0000 C   0  0  0  0  0  0  0  0  0  0  0  0
   -1.7271    5.0132    0.0000 C   0  0  0  0  0  0  0  0  0  0  0  0
   -2.5961    4.5182    0.0000 C   0  0  0  0  0  0  0  0  0  0  0  0
   -2.5990    3.5130    0.0000 C   0  0  0  0  0  0  0  0  0  0  0  0
   -1.7330    3.0028    0.0000 C   0  0  0  0  0  0  0  0  0  0  0  0
    0.0020    2.0079    0.0000 C   0  0  0  0  0  0  0  0  0  0  0  0
    0.8680    1.5079    0.0000 O   0  0  0  0  0  0  0  0  0  0  0  0
    0.8680    0.5079    0.0000 C   0  0  0  0  0  0  0  0  0  0  0  0
    0.0000    0.0000    0.0000 C   0  0  0  0  0  0  0  0  0  0  0  0
   -0.0000   -1.0058    0.0000 N   0  0  0  0  0  0  0  0  0  0  0  0
    0.8680   -1.5037    0.0000 C   0  0  0  0  0  0  0  0  0  0  0  0
    1.7360   -1.0071    0.0000 C   0  0  0  0  0  0  0  0  0  0  0  0
    2.6938   -1.3184    0.0000 N   0  0  0  0  0  0  0  0  0  0  0  0
    3.2858   -0.5036    0.0000 N   0  0  0  0  0  0  0  0  0  0  0  0
    2.6938    0.3110    0.0000 C   0  0  0  0  0  0  0  0  0  0  0  0
    3.0028    1.2620    0.0000 C   0  0  0  0  0  0  0  0  0  0  0  0
    2.3281    2.0071    0.0000 C   0  0  0  0  0  0  0  0  0  0  0  0
    2.6371    2.9582    0.0000 C   0  0  0  0  0  0  0  0  0  0  0  0
    3.6140    3.1718    0.0000 C   0  0  0  0  0  0  0  0  0  0  0  0
    3.9189    4.1242    0.0000 O   0  0  0  0  0  0  0  0  0  0  0  0
    3.2465    4.8644    0.0000 C   0  0  0  0  0  0  0  0  0  0  0  0
    2.2693    4.6522    0.0000 F   0  0  0  0  0  0  0  0  0  0  0  0
    3.5514    5.8168    0.0000 F   0  0  0  0  0  0  0  0  0  0  0  0
    4.2888    2.4267    0.0000 C   0  0  0  0  0  0  0  0  0  0  0  0
    3.9866    1.4681    0.0000 C   0  0  0  0  0  0  0  0  0  0  0  0
    1.7360   -0.0000    0.0000 N   0  0  0  0  0  0  0  0  0  0  0  0
  1  2  1  0  0  0  0
  2  3  1  0  0  0  0
  3  8  1  0  0  0  0
  3  4  2  0  0  0  0
  4  5  1  0  0  0  0
  5  6  2  0  0  0  0
  6  7  1  0  0  0  0
  7  8  2  0  0  0  0
  2  9  1  0  0  0  0
  9 10  1  0  0  0  0
 10 11  1  0  0  0  0
 11 29  1  0  0  0  0
 11 12  2  0  0  0  0
 12 13  1  0  0  0  0
 13 14  2  0  0  0  0
 14 15  1  0  0  0  0
 15 29  1  0  0  0  0
 15 16  2  0  0  0  0
 16 17  1  0  0  0  0
 17 18  2  0  0  0  0
 18 19  1  0  0  0  0
 19 28  1  0  0  0  0
 19 20  2  0  0  0  0
 20 21  1  0  0  0  0
 21 22  2  0  0  0  0
 22 23  1  0  0  0  0
 23 24  1  0  0  0  0
 24 25  1  0  0  0  0
 24 26  1  0  0  0  0
 22 27  1  0  0  0  0
 27 28  2  0  0  0  0
 18 29  1  0  0  0  0
M  END
>  <MMV ID>
MMV688896

>  <Blood Stage EC50 (uM)>
0.364

>  <Blood Stage pEC50>
6.439

>  <PfATP4>
Yes

$$$$
OSM-S-293
  StarDrop          2D                              

 25 28  0  0  0  0  0  0  0  0999 V2000
    3.9189    4.1242    0.0000 Cl  0  0  0  0  0  0  0  0  0  0  0  0
    3.6140    3.1718    0.0000 C   0  0  0  0  0  0  0  0  0  0  0  0
    2.6371    2.9582    0.0000 C   0  0  0  0  0  0  0  0  0  0  0  0
    2.3281    2.0071    0.0000 C   0  0  0  0  0  0  0  0  0  0  0  0
    4.2888    2.4267    0.0000 C   0  0  0  0  0  0  0  0  0  0  0  0
    3.9867    1.4681    0.0000 C   0  0  0  0  0  0  0  0  0  0  0  0
    3.0029    1.2620    0.0000 C   0  0  0  0  0  0  0  0  0  0  0  0
    2.6938    0.3110    0.0000 C   0  0  0  0  0  0  0  0  0  0  0  0
    3.2858   -0.5036    0.0000 N   0  0  0  0  0  0  0  0  0  0  0  0
    2.6938   -1.3184    0.0000 N   0  0  0  0  0  0  0  0  0  0  0  0
    1.7360   -1.0071    0.0000 C   0  0  0  0  0  0  0  0  0  0  0  0
    1.7360   -0.0000    0.0000 N   0  0  0  0  0  0  0  0  0  0  0  0
    0.8680    0.5079    0.0000 C   0  0  0  0  0  0  0  0  0  0  0  0
    0.8680    1.5079    0.0000 O   0  0  0  0  0  0  0  0  0  0  0  0
    0.0020    2.0079    0.0000 C   0  0  0  0  0  0  0  0  0  0  0  0
    0.0020    3.0079    0.0000 C   0  0  0  0  0  0  0  0  0  0  0  0
   -0.8640    3.5079    0.0000 C   0  0  0  0  0  0  0  0  0  0  0  0
   -1.7331    3.0027    0.0000 C   0  0  0  0  0  0  0  0  0  0  0  0
   -2.5992    3.5027    0.0000 C   0  0  0  0  0  0  0  0  0  0  0  0
   -2.6050    4.5027    0.0000 C   0  0  0  0  0  0  0  0  0  0  0  0
   -1.7360    5.0079    0.0000 C   0  0  0  0  0  0  0  0  0  0  0  0
   -0.8611    4.5130    0.0000 C   0  0  0  0  0  0  0  0  0  0  0  0
    0.0000    0.0000    0.0000 C   0  0  0  0  0  0  0  0  0  0  0  0
   -0.0000   -1.0058    0.0000 N   0  0  0  0  0  0  0  0  0  0  0  0
    0.8680   -1.5037    0.0000 C   0  0  0  0  0  0  0  0  0  0  0  0
  1  2  1  0  0  0  0
  2  3  1  0  0  0  0
  3  4  2  0  0  0  0
  4  7  1  0  0  0  0
  2  5  2  0  0  0  0
  5  6  1  0  0  0  0
  6  7  2  0  0  0  0
  7  8  1  0  0  0  0
  8 12  1  0  0  0  0
  8  9  2  0  0  0  0
  9 10  1  0  0  0  0
 10 11  2  0  0  0  0
 11 25  1  0  0  0  0
 11 12  1  0  0  0  0
 12 13  1  0  0  0  0
 13 14  1  0  0  0  0
 14 15  1  0  0  0  0
 15 16  1  0  0  0  0
 16 17  1  0  0  0  0
 17 22  1  0  0  0  0
 17 18  2  0  0  0  0
 18 19  1  0  0  0  0
 19 20  2  0  0  0  0
 20 21  1  0  0  0  0
 21 22  2  0  0  0  0
 13 23  2  0  0  0  0
 23 24  1  0  0  0  0
 24 25  2  0  0  0  0
M  END
>  <MMV ID>
MMV663915

>  <Blood Stage EC50 (uM)>
0.166

>  <Blood Stage pEC50>
6.78

>  <PfATP4>
Yes

$$$$
OSM-S-353
  StarDrop          2D                              

 30 33  0  0  0  0  0  0  0  0999 V2000
    5.2010    6.2946    0.0000 F   0  0  0  0  0  0  0  0  0  0  0  0
    4.8961    5.3422    0.0000 C   0  0  0  0  0  0  0  0  0  0  0  0
    5.5685    4.6019    0.0000 F   0  0  0  0  0  0  0  0  0  0  0  0
    3.9189    5.1300    0.0000 O   0  0  0  0  0  0  0  0  0  0  0  0
    3.6140    4.1776    0.0000 C   0  0  0  0  0  0  0  0  0  0  0  0
    2.6371    3.9640    0.0000 C   0  0  0  0  0  0  0  0  0  0  0  0
    2.3281    3.0129    0.0000 C   0  0  0  0  0  0  0  0  0  0  0  0
    4.2888    3.4325    0.0000 C   0  0  0  0  0  0  0  0  0  0  0  0
    3.9866    2.4739    0.0000 C   0  0  0  0  0  0  0  0  0  0  0  0
    3.0029    2.2678    0.0000 C   0  0  0  0  0  0  0  0  0  0  0  0
    2.6938    1.3168    0.0000 C   0  0  0  0  0  0  0  0  0  0  0  0
    3.2858    0.5022    0.0000 N   0  0  0  0  0  0  0  0  0  0  0  0
    2.6938   -0.3126    0.0000 N   0  0  0  0  0  0  0  0  0  0  0  0
    1.7360   -0.0013    0.0000 C   0  0  0  0  0  0  0  0  0  0  0  0
    0.8680   -0.4979    0.0000 C   0  0  0  0  0  0  0  0  0  0  0  0
    0.0000    0.0000    0.0000 N   0  0  0  0  0  0  0  0  0  0  0  0
   -0.0000    1.0058    0.0000 C   0  0  0  0  0  0  0  0  0  0  0  0
    0.8680    1.5137    0.0000 C   0  0  0  0  0  0  0  0  0  0  0  0
    0.8680    2.5137    0.0000 O   0  0  0  0  0  0  0  0  0  0  0  0
    0.0020    3.0137    0.0000 C   0  0  0  0  0  0  0  0  0  0  0  0
    0.0020    4.0137    0.0000 C   0  0  0  0  0  0  0  0  0  0  0  0
    0.8680    4.5137    0.0000 C   0  0  0  0  0  0  0  0  0  0  0  0
    0.8680    5.5137    0.0000 O   0  0  0  0  0  0  0  0  0  0  0  0
   -0.8640    4.5137    0.0000 C   0  0  0  0  0  0  0  0  0  0  0  0
   -0.8611    5.5189    0.0000 C   0  0  0  0  0  0  0  0  0  0  0  0
   -1.7271    6.0190    0.0000 C   0  0  0  0  0  0  0  0  0  0  0  0
   -2.5961    5.5240    0.0000 C   0  0  0  0  0  0  0  0  0  0  0  0
   -2.5990    4.5188    0.0000 C   0  0  0  0  0  0  0  0  0  0  0  0
   -1.7330    4.0086    0.0000 C   0  0  0  0  0  0  0  0  0  0  0  0
    1.7360    1.0058    0.0000 N   0  0  0  0  0  0  0  0  0  0  0  0
  1  2  1  0  0  0  0
  2  3  1  0  0  0  0
  2  4  1  0  0  0  0
  4  5  1  0  0  0  0
  5  6  1  0  0  0  0
  6  7  2  0  0  0  0
  7 10  1  0  0  0  0
  5  8  2  0  0  0  0
  8  9  1  0  0  0  0
  9 10  2  0  0  0  0
 10 11  1  0  0  0  0
 11 30  1  0  0  0  0
 11 12  2  0  0  0  0
 12 13  1  0  0  0  0
 13 14  2  0  0  0  0
 14 30  1  0  0  0  0
 14 15  1  0  0  0  0
 15 16  2  0  0  0  0
 16 17  1  0  0  0  0
 17 18  2  0  0  0  0
 18 19  1  0  0  0  0
 19 20  1  0  0  0  0
 20 21  1  0  0  0  0
 21 22  1  0  0  0  0
 22 23  1  0  0  0  0
 21 24  1  0  0  0  0
 24 29  1  0  0  0  0
 24 25  2  0  0  0  0
 25 26  1  0  0  0  0
 26 27  2  0  0  0  0
 27 28  1  0  0  0  0
 28 29  2  0  0  0  0
 18 30  1  0  0  0  0
M  END
>  <MMV ID>
MMV693155

>  <Blood Stage EC50 (uM)>
0.134

>  <Blood Stage pEC50>
6.873

>  <PfATP4>
Yes

$$$$
OSM-S-369
  StarDrop          2D                              

 28 31  0  0  0  0  0  0  0  0999 V2000
    5.2010    6.2946    0.0000 F   0  0  0  0  0  0  0  0  0  0  0  0
    4.8961    5.3422    0.0000 C   0  0  0  0  0  0  0  0  0  0  0  0
    5.5685    4.6019    0.0000 F   0  0  0  0  0  0  0  0  0  0  0  0
    3.9189    5.1300    0.0000 O   0  0  0  0  0  0  0  0  0  0  0  0
    3.6140    4.1776    0.0000 C   0  0  0  0  0  0  0  0  0  0  0  0
    2.6371    3.9640    0.0000 C   0  0  0  0  0  0  0  0  0  0  0  0
    2.3281    3.0129    0.0000 C   0  0  0  0  0  0  0  0  0  0  0  0
    4.2888    3.4325    0.0000 C   0  0  0  0  0  0  0  0  0  0  0  0
    3.9866    2.4739    0.0000 C   0  0  0  0  0  0  0  0  0  0  0  0
    3.0029    2.2678    0.0000 C   0  0  0  0  0  0  0  0  0  0  0  0
    2.6938    1.3168    0.0000 C   0  0  0  0  0  0  0  0  0  0  0  0
    3.2858    0.5022    0.0000 N   0  0  0  0  0  0  0  0  0  0  0  0
    2.6938   -0.3126    0.0000 N   0  0  0  0  0  0  0  0  0  0  0  0
    1.7360   -0.0013    0.0000 C   0  0  0  0  0  0  0  0  0  0  0  0
    0.8680   -0.4979    0.0000 C   0  0  0  0  0  0  0  0  0  0  0  0
    0.0000    0.0000    0.0000 N   0  0  0  0  0  0  0  0  0  0  0  0
   -0.0000    1.0058    0.0000 C   0  0  0  0  0  0  0  0  0  0  0  0
    0.8680    1.5137    0.0000 C   0  0  0  0  0  0  0  0  0  0  0  0
    0.8680    2.5137    0.0000 O   0  0  0  0  0  0  0  0  0  0  0  0
    0.0020    3.0137    0.0000 C   0  0  0  0  0  0  0  0  0  0  0  0
    0.0020    4.0137    0.0000 C   0  0  0  0  0  0  0  0  0  0  0  0
   -0.8640    4.5137    0.0000 C   0  0  0  0  0  0  0  0  0  0  0  0
   -1.7331    4.0085    0.0000 C   0  0  0  0  0  0  0  0  0  0  0  0
   -2.5992    4.5085    0.0000 C   0  0  0  0  0  0  0  0  0  0  0  0
   -2.6050    5.5085    0.0000 C   0  0  0  0  0  0  0  0  0  0  0  0
   -1.7360    6.0137    0.0000 C   0  0  0  0  0  0  0  0  0  0  0  0
   -0.8611    5.5188    0.0000 C   0  0  0  0  0  0  0  0  0  0  0  0
    1.7360    1.0058    0.0000 N   0  0  0  0  0  0  0  0  0  0  0  0
  1  2  1  0  0  0  0
  2  3  1  0  0  0  0
  2  4  1  0  0  0  0
  4  5  1  0  0  0  0
  5  6  1  0  0  0  0
  6  7  2  0  0  0  0
  7 10  1  0  0  0  0
  5  8  2  0  0  0  0
  8  9  1  0  0  0  0
  9 10  2  0  0  0  0
 10 11  1  0  0  0  0
 11 28  1  0  0  0  0
 11 12  2  0  0  0  0
 12 13  1  0  0  0  0
 13 14  2  0  0  0  0
 14 28  1  0  0  0  0
 14 15  1  0  0  0  0
 15 16  2  0  0  0  0
 16 17  1  0  0  0  0
 17 18  2  0  0  0  0
 18 19  1  0  0  0  0
 19 20  1  0  0  0  0
 20 21  1  0  0  0  0
 21 22  1  0  0  0  0
 22 27  1  0  0  0  0
 22 23  2  0  0  0  0
 23 24  1  0  0  0  0
 24 25  2  0  0  0  0
 25 26  1  0  0  0  0
 26 27  2  0  0  0  0
 18 28  1  0  0  0  0
M  END
>  <MMV ID>
MMV897698

>  <Blood Stage EC50 (uM)>
0.362

>  <Blood Stage pEC50>
6.441

>  <PfATP4>
Yes

$$$$
OSM-S-370
  StarDrop          2D                              

 31 38  0  0  0  0  0  0  0  0999 V2000
    5.2010    6.2946    0.0000 F   0  0  0  0  0  0  0  0  0  0  0  0
    4.8961    5.3422    0.0000 C   0  0  0  0  0  0  0  0  0  0  0  0
    5.5685    4.6019    0.0000 F   0  0  0  0  0  0  0  0  0  0  0  0
    3.9189    5.1300    0.0000 O   0  0  0  0  0  0  0  0  0  0  0  0
    3.6140    4.1776    0.0000 C   0  0  0  0  0  0  0  0  0  0  0  0
    2.6371    3.9640    0.0000 C   0  0  0  0  0  0  0  0  0  0  0  0
    2.3281    3.0129    0.0000 C   0  0  0  0  0  0  0  0  0  0  0  0
    4.2888    3.4325    0.0000 C   0  0  0  0  0  0  0  0  0  0  0  0
    3.9866    2.4739    0.0000 C   0  0  0  0  0  0  0  0  0  0  0  0
    3.0029    2.2678    0.0000 C   0  0  0  0  0  0  0  0  0  0  0  0
    2.6938    1.3168    0.0000 C   0  0  0  0  0  0  0  0  0  0  0  0
    3.2858    0.5022    0.0000 N   0  0  0  0  0  0  0  0  0  0  0  0
    2.6938   -0.3126    0.0000 N   0  0  0  0  0  0  0  0  0  0  0  0
    1.7360   -0.0013    0.0000 C   0  0  0  0  0  0  0  0  0  0  0  0
    0.8680   -0.4979    0.0000 C   0  0  0  0  0  0  0  0  0  0  0  0
    0.0000    0.0000    0.0000 N   0  0  0  0  0  0  0  0  0  0  0  0
   -0.0000    1.0058    0.0000 C   0  0  0  0  0  0  0  0  0  0  0  0
    0.8680    1.5137    0.0000 C   0  0  0  0  0  0  0  0  0  0  0  0
    0.8680    2.5137    0.0000 O   0  0  0  0  0  0  0  0  0  0  0  0
    0.0020    3.0137    0.0000 C   0  0  0  0  0  0  0  0  0  0  0  0
    0.0020    4.0137    0.0000 C   0  0  0  0  0  0  0  0  0  0  0  0
   -0.8640    4.5137    0.0000 C   0  0  0  0  0  0  0  0  0  0  0  0
   -0.8640    5.5137    0.0000 C   0  0  0  0  0  0  0  0  0  0  0  0
   -1.5748    6.2244    0.0000 C   0  0  0  0  0  0  0  0  0  0  0  0
   -0.8640    6.9351    0.0000 C   0  0  0  0  0  0  0  0  0  0  0  0
   -0.1533    6.2244    0.0000 C   0  0  0  0  0  0  0  0  0  0  0  0
   -0.1641    7.2332    0.0000 C   0  0  0  0  0  0  0  0  0  0  0  0
   -0.8748    6.5225    0.0000 C   0  0  0  0  0  0  0  0  0  0  0  0
   -1.5855    7.2332    0.0000 C   0  0  0  0  0  0  0  0  0  0  0  0
   -0.8784    7.9403    0.0000 C   0  0  0  0  0  0  0  0  0  0  0  0
    1.7360    1.0058    0.0000 N   0  0  0  0  0  0  0  0  0  0  0  0
  1  2  1  0  0  0  0
  2  3  1  0  0  0  0
  2  4  1  0  0  0  0
  4  5  1  0  0  0  0
  5  6  1  0  0  0  0
  6  7  2  0  0  0  0
  7 10  1  0  0  0  0
  5  8  2  0  0  0  0
  8  9  1  0  0  0  0
  9 10  2  0  0  0  0
 10 11  1  0  0  0  0
 11 31  1  0  0  0  0
 11 12  2  0  0  0  0
 12 13  1  0  0  0  0
 13 14  2  0  0  0  0
 14 31  1  0  0  0  0
 14 15  1  0  0  0  0
 15 16  2  0  0  0  0
 16 17  1  0  0  0  0
 17 18  2  0  0  0  0
 18 19  1  0  0  0  0
 19 20  1  0  0  0  0
 20 21  1  0  0  0  0
 21 22  1  0  0  0  0
 22 23  1  0  0  0  0
 23 26  1  0  0  0  0
 23 28  1  0  0  0  0
 23 24  1  0  0  0  0
 24 29  1  0  0  0  0
 24 25  1  0  0  0  0
 25 30  1  0  0  0  0
 25 26  1  0  0  0  0
 26 27  1  0  0  0  0
 27 30  1  0  0  0  0
 27 28  1  0  0  0  0
 28 29  1  0  0  0  0
 29 30  1  0  0  0  0
 18 31  1  0  0  0  0
M  END
>  <MMV ID>
MMV897699

>  <Blood Stage EC50 (uM)>
2

>  <Blood Stage pEC50>
5.699

>  <PfATP4>
Yes

$$$$
OSM-S-371
  StarDrop          2D                              

 30 37  0  0  0  0  0  0  0  0999 V2000
    5.2010    6.2946    0.0000 F   0  0  0  0  0  0  0  0  0  0  0  0
    4.8961    5.3422    0.0000 C   0  0  0  0  0  0  0  0  0  0  0  0
    5.5685    4.6019    0.0000 F   0  0  0  0  0  0  0  0  0  0  0  0
    3.9189    5.1300    0.0000 O   0  0  0  0  0  0  0  0  0  0  0  0
    3.6140    4.1776    0.0000 C   0  0  0  0  0  0  0  0  0  0  0  0
    2.6371    3.9640    0.0000 C   0  0  0  0  0  0  0  0  0  0  0  0
    2.3281    3.0129    0.0000 C   0  0  0  0  0  0  0  0  0  0  0  0
    4.2888    3.4325    0.0000 C   0  0  0  0  0  0  0  0  0  0  0  0
    3.9866    2.4739    0.0000 C   0  0  0  0  0  0  0  0  0  0  0  0
    3.0029    2.2678    0.0000 C   0  0  0  0  0  0  0  0  0  0  0  0
    2.6938    1.3168    0.0000 C   0  0  0  0  0  0  0  0  0  0  0  0
    3.2858    0.5022    0.0000 N   0  0  0  0  0  0  0  0  0  0  0  0
    2.6938   -0.3126    0.0000 N   0  0  0  0  0  0  0  0  0  0  0  0
    1.7360   -0.0013    0.0000 C   0  0  0  0  0  0  0  0  0  0  0  0
    0.8680   -0.4979    0.0000 C   0  0  0  0  0  0  0  0  0  0  0  0
    0.0000    0.0000    0.0000 N   0  0  0  0  0  0  0  0  0  0  0  0
   -0.0000    1.0058    0.0000 C   0  0  0  0  0  0  0  0  0  0  0  0
    0.8680    1.5137    0.0000 C   0  0  0  0  0  0  0  0  0  0  0  0
    0.8680    2.5137    0.0000 O   0  0  0  0  0  0  0  0  0  0  0  0
    0.0020    3.0137    0.0000 C   0  0  0  0  0  0  0  0  0  0  0  0
    0.0020    4.0137    0.0000 C   0  0  0  0  0  0  0  0  0  0  0  0
   -0.8640    4.5137    0.0000 C   0  0  0  0  0  0  0  0  0  0  0  0
   -0.7276    5.5095    0.0000 C   0  0  0  0  0  0  0  0  0  0  0  0
   -1.8598    4.6502    0.0000 C   0  0  0  0  0  0  0  0  0  0  0  0
   -1.7233    5.6460    0.0000 C   0  0  0  0  0  0  0  0  0  0  0  0
   -2.5204    5.0276    0.0000 C   0  0  0  0  0  0  0  0  0  0  0  0
   -1.5246    4.8911    0.0000 C   0  0  0  0  0  0  0  0  0  0  0  0
   -1.6611    3.8953    0.0000 C   0  0  0  0  0  0  0  0  0  0  0  0
   -2.6518    4.0311    0.0000 C   0  0  0  0  0  0  0  0  0  0  0  0
    1.7360    1.0058    0.0000 N   0  0  0  0  0  0  0  0  0  0  0  0
  1  2  1  0  0  0  0
  2  3  1  0  0  0  0
  2  4  1  0  0  0  0
  4  5  1  0  0  0  0
  5  6  1  0  0  0  0
  6  7  2  0  0  0  0
  7 10  1  0  0  0  0
  5  8  2  0  0  0  0
  8  9  1  0  0  0  0
  9 10  2  0  0  0  0
 10 11  1  0  0  0  0
 11 30  1  0  0  0  0
 11 12  2  0  0  0  0
 12 13  1  0  0  0  0
 13 14  2  0  0  0  0
 14 30  1  0  0  0  0
 14 15  1  0  0  0  0
 15 16  2  0  0  0  0
 16 17  1  0  0  0  0
 17 18  2  0  0  0  0
 18 19  1  0  0  0  0
 19 20  1  0  0  0  0
 20 21  1  0  0  0  0
 21 22  1  0  0  0  0
 22 28  1  0  0  0  0
 22 23  1  0  0  0  0
 23 27  1  0  0  0  0
 23 25  1  0  0  0  0
 22 24  1  0  0  0  0
 24 29  1  0  0  0  0
 24 25  1  0  0  0  0
 25 26  1  0  0  0  0
 26 29  1  0  0  0  0
 26 27  1  0  0  0  0
 27 28  1  0  0  0  0
 28 29  1  0  0  0  0
 18 30  1  0  0  0  0
M  END
>  <MMV ID>
MMV897700

>  <Blood Stage EC50 (uM)>
0.372

>  <Blood Stage pEC50>
6.429

>  <PfATP4>
Yes

$$$$
OSM-S-376
  StarDrop          2D                              

 29 32  0  0  0  0  0  0  0  0999 V2000
    0.8680    3.5079    0.0000 O   0  0  0  0  0  0  0  0  0  0  0  0
    0.0020    3.0079    0.0000 C   0  0  0  0  0  0  0  0  0  0  0  0
   -0.8641    3.5079    0.0000 C   0  0  0  0  0  0  0  0  0  0  0  0
   -0.8611    4.5130    0.0000 C   0  0  0  0  0  0  0  0  0  0  0  0
   -1.7360    5.0079    0.0000 C   0  0  0  0  0  0  0  0  0  0  0  0
   -1.7419    6.0079    0.0000 F   0  0  0  0  0  0  0  0  0  0  0  0
   -2.6050    4.5027    0.0000 C   0  0  0  0  0  0  0  0  0  0  0  0
   -3.4732    4.9989    0.0000 F   0  0  0  0  0  0  0  0  0  0  0  0
   -2.5992    3.5027    0.0000 C   0  0  0  0  0  0  0  0  0  0  0  0
   -1.7331    3.0027    0.0000 C   0  0  0  0  0  0  0  0  0  0  0  0
    0.0020    2.0079    0.0000 C   0  0  0  0  0  0  0  0  0  0  0  0
    0.8680    1.5079    0.0000 O   0  0  0  0  0  0  0  0  0  0  0  0
    0.8680    0.5079    0.0000 C   0  0  0  0  0  0  0  0  0  0  0  0
    0.0000    0.0000    0.0000 C   0  0  0  0  0  0  0  0  0  0  0  0
   -0.0000   -1.0058    0.0000 N   0  0  0  0  0  0  0  0  0  0  0  0
    0.8680   -1.5037    0.0000 C   0  0  0  0  0  0  0  0  0  0  0  0
    1.7360   -1.0071    0.0000 C   0  0  0  0  0  0  0  0  0  0  0  0
    2.6938   -1.3184    0.0000 N   0  0  0  0  0  0  0  0  0  0  0  0
    3.2858   -0.5036    0.0000 N   0  0  0  0  0  0  0  0  0  0  0  0
    2.6938    0.3110    0.0000 C   0  0  0  0  0  0  0  0  0  0  0  0
    3.0028    1.2620    0.0000 C   0  0  0  0  0  0  0  0  0  0  0  0
    2.3281    2.0071    0.0000 C   0  0  0  0  0  0  0  0  0  0  0  0
    2.6371    2.9582    0.0000 C   0  0  0  0  0  0  0  0  0  0  0  0
    3.6140    3.1718    0.0000 C   0  0  0  0  0  0  0  0  0  0  0  0
    3.9189    4.1242    0.0000 C   0  0  0  0  0  0  0  0  0  0  0  0
    4.2238    5.0766    0.0000 N   0  0  0  0  0  0  0  0  0  0  0  0
    4.2888    2.4267    0.0000 C   0  0  0  0  0  0  0  0  0  0  0  0
    3.9866    1.4681    0.0000 C   0  0  0  0  0  0  0  0  0  0  0  0
    1.7360   -0.0000    0.0000 N   0  0  0  0  0  0  0  0  0  0  0  0
  1  2  1  0  0  0  0
  2  3  1  0  0  0  0
  3 10  1  0  0  0  0
  3  4  2  0  0  0  0
  4  5  1  0  0  0  0
  5  6  1  0  0  0  0
  5  7  2  0  0  0  0
  7  8  1  0  0  0  0
  7  9  1  0  0  0  0
  9 10  2  0  0  0  0
  2 11  1  0  0  0  0
 11 12  1  0  0  0  0
 12 13  1  0  0  0  0
 13 29  1  0  0  0  0
 13 14  2  0  0  0  0
 14 15  1  0  0  0  0
 15 16  2  0  0  0  0
 16 17  1  0  0  0  0
 17 29  1  0  0  0  0
 17 18  2  0  0  0  0
 18 19  1  0  0  0  0
 19 20  2  0  0  0  0
 20 21  1  0  0  0  0
 21 28  1  0  0  0  0
 21 22  2  0  0  0  0
 22 23  1  0  0  0  0
 23 24  2  0  0  0  0
 24 25  1  0  0  0  0
 25 26  3  0  0  0  0
 24 27  1  0  0  0  0
 27 28  2  0  0  0  0
 20 29  1  0  0  0  0
M  END
>  <MMV ID>
MMV897708

>  <Blood Stage EC50 (uM)>
0.803

>  <Blood Stage pEC50>
6.095

>  <PfATP4>
Yes

$$$$
OSM-S-379
  StarDrop          2D                              

 30 33  0  0  0  0  0  0  0  0999 V2000
    0.0153    6.0130    0.0000 F   0  0  0  0  0  0  0  0  0  0  0  0
    0.0109    5.0130    0.0000 C   0  0  0  0  0  0  0  0  0  0  0  0
   -0.8611    4.5130    0.0000 C   0  0  0  0  0  0  0  0  0  0  0  0
   -1.7241    5.0181    0.0000 Cl  0  0  0  0  0  0  0  0  0  0  0  0
   -0.8700    3.5079    0.0000 C   0  0  0  0  0  0  0  0  0  0  0  0
    0.8740    4.5080    0.0000 C   0  0  0  0  0  0  0  0  0  0  0  0
    0.8740    3.5079    0.0000 C   0  0  0  0  0  0  0  0  0  0  0  0
    0.0020    3.0079    0.0000 C   0  0  0  0  0  0  0  0  0  0  0  0
    0.0020    2.0079    0.0000 N   0  0  0  0  0  0  0  0  0  0  0  0
    0.8680    1.5079    0.0000 C   0  0  0  0  0  0  0  0  0  0  0  0
    0.8680    0.5079    0.0000 C   0  0  0  0  0  0  0  0  0  0  0  0
    0.0000    0.0000    0.0000 C   0  0  0  0  0  0  0  0  0  0  0  0
   -0.0000   -1.0058    0.0000 N   0  0  0  0  0  0  0  0  0  0  0  0
    0.8680   -1.5037    0.0000 C   0  0  0  0  0  0  0  0  0  0  0  0
    1.7360   -1.0071    0.0000 C   0  0  0  0  0  0  0  0  0  0  0  0
    2.6938   -1.3184    0.0000 N   0  0  0  0  0  0  0  0  0  0  0  0
    3.2858   -0.5036    0.0000 N   0  0  0  0  0  0  0  0  0  0  0  0
    2.6938    0.3110    0.0000 C   0  0  0  0  0  0  0  0  0  0  0  0
    3.2346    1.9753    0.0000 C   0  0  0  0  0  0  0  0  0  0  0  0
    2.5599    2.7204    0.0000 C   0  0  0  0  0  0  0  0  0  0  0  0
    2.8689    3.6715    0.0000 C   0  0  0  0  0  0  0  0  0  0  0  0
    3.8458    3.8851    0.0000 C   0  0  0  0  0  0  0  0  0  0  0  0
    4.1507    4.8375    0.0000 O   0  0  0  0  0  0  0  0  0  0  0  0
    3.4783    5.5777    0.0000 C   0  0  0  0  0  0  0  0  0  0  0  0
    2.5011    5.3655    0.0000 F   0  0  0  0  0  0  0  0  0  0  0  0
    3.7832    6.5301    0.0000 F   0  0  0  0  0  0  0  0  0  0  0  0
    4.5206    3.1400    0.0000 C   0  0  0  0  0  0  0  0  0  0  0  0
    4.2184    2.1814    0.0000 C   0  0  0  0  0  0  0  0  0  0  0  0
    1.7360   -0.0000    0.0000 N   0  0  0  0  0  0  0  0  0  0  0  0
    1.7340    2.0079    0.0000 O   0  0  0  0  0  0  0  0  0  0  0  0
  1  2  1  0  0  0  0
  2  3  1  0  0  0  0
  3  4  1  0  0  0  0
  3  5  2  0  0  0  0
  5  8  1  0  0  0  0
  2  6  2  0  0  0  0
  6  7  1  0  0  0  0
  7  8  2  0  0  0  0
  8  9  1  0  0  0  0
  9 10  1  0  0  0  0
 10 11  1  0  0  0  0
 11 29  1  0  0  0  0
 11 12  2  0  0  0  0
 12 13  1  0  0  0  0
 13 14  2  0  0  0  0
 14 15  1  0  0  0  0
 15 29  1  0  0  0  0
 15 16  2  0  0  0  0
 16 17  1  0  0  0  0
 17 18  2  0  0  0  0
 18 19  1  0  0  0  0
 19 28  1  0  0  0  0
 19 20  2  0  0  0  0
 20 21  1  0  0  0  0
 21 22  2  0  0  0  0
 22 23  1  0  0  0  0
 23 24  1  0  0  0  0
 24 25  1  0  0  0  0
 24 26  1  0  0  0  0
 22 27  1  0  0  0  0
 27 28  2  0  0  0  0
 18 29  1  0  0  0  0
 10 30  2  0  0  0  0
M  END
>  <MMV ID>
MMV670767

>  <Blood Stage EC50 (uM)>
0.295

>  <Blood Stage pEC50>
6.53

>  <PfATP4>
Yes

$$$$
OSM-S-380
  StarDrop          2D                              

 29 33  0  0  0  0  0  0  0  0999 V2000
    5.5685    4.6019    0.0000 F   0  0  0  0  0  0  0  0  0  0  0  0
    4.8961    5.3422    0.0000 C   0  0  0  0  0  0  0  0  0  0  0  0
    3.9189    5.1300    0.0000 O   0  0  0  0  0  0  0  0  0  0  0  0
    3.6140    4.1776    0.0000 C   0  0  0  0  0  0  0  0  0  0  0  0
    2.6371    3.9640    0.0000 C   0  0  0  0  0  0  0  0  0  0  0  0
    2.3281    3.0129    0.0000 C   0  0  0  0  0  0  0  0  0  0  0  0
    4.2888    3.4325    0.0000 C   0  0  0  0  0  0  0  0  0  0  0  0
    3.9866    2.4739    0.0000 C   0  0  0  0  0  0  0  0  0  0  0  0
    3.0029    2.2678    0.0000 C   0  0  0  0  0  0  0  0  0  0  0  0
    2.6938    1.3168    0.0000 C   0  0  0  0  0  0  0  0  0  0  0  0
    3.2858    0.5022    0.0000 N   0  0  0  0  0  0  0  0  0  0  0  0
    2.6938   -0.3126    0.0000 N   0  0  0  0  0  0  0  0  0  0  0  0
    1.7360   -0.0013    0.0000 C   0  0  0  0  0  0  0  0  0  0  0  0
    0.8680   -0.4979    0.0000 C   0  0  0  0  0  0  0  0  0  0  0  0
    0.0000    0.0000    0.0000 N   0  0  0  0  0  0  0  0  0  0  0  0
   -0.0000    1.0058    0.0000 C   0  0  0  0  0  0  0  0  0  0  0  0
    0.8680    1.5137    0.0000 C   0  0  0  0  0  0  0  0  0  0  0  0
    0.8680    2.5137    0.0000 C   0  0  0  0  0  0  0  0  0  0  0  0
    0.0020    3.0137    0.0000 N   0  0  0  0  0  0  0  0  0  0  0  0
   -0.1034    4.0152    0.0000 C   0  0  0  0  0  0  0  0  0  0  0  0
   -1.0883    4.2248    0.0000 C   0  0  0  0  0  0  0  0  0  0  0  0
   -1.5860    5.0987    0.0000 C   0  0  0  0  0  0  0  0  0  0  0  0
   -2.5917    5.0929    0.0000 C   0  0  0  0  0  0  0  0  0  0  0  0
   -3.0946    4.2219    0.0000 C   0  0  0  0  0  0  0  0  0  0  0  0
   -2.5919    3.3566    0.0000 C   0  0  0  0  0  0  0  0  0  0  0  0
   -1.5919    3.3527    0.0000 C   0  0  0  0  0  0  0  0  0  0  0  0
   -0.9181    2.6041    0.0000 C   0  0  0  0  0  0  0  0  0  0  0  0
    1.7360    1.0058    0.0000 N   0  0  0  0  0  0  0  0  0  0  0  0
    5.2010    6.2946    0.0000 F   0  0  0  0  0  0  0  0  0  0  0  0
  1  2  1  0  0  0  0
  2  3  1  0  0  0  0
  3  4  1  0  0  0  0
  4  5  1  0  0  0  0
  5  6  2  0  0  0  0
  6  9  1  0  0  0  0
  4  7  2  0  0  0  0
  7  8  1  0  0  0  0
  8  9  2  0  0  0  0
  9 10  1  0  0  0  0
 10 28  1  0  0  0  0
 10 11  2  0  0  0  0
 11 12  1  0  0  0  0
 12 13  2  0  0  0  0
 13 28  1  0  0  0  0
 13 14  1  0  0  0  0
 14 15  2  0  0  0  0
 15 16  1  0  0  0  0
 16 17  2  0  0  0  0
 17 18  1  0  0  0  0
 18 19  1  0  0  0  0
 19 27  1  0  0  0  0
 19 20  1  0  0  0  0
 20 21  1  0  0  0  0
 21 22  1  0  0  0  0
 22 23  2  0  0  0  0
 23 24  1  0  0  0  0
 24 25  2  0  0  0  0
 25 26  1  0  0  0  0
 21 26  2  0  0  0  0
 26 27  1  0  0  0  0
 17 28  1  0  0  0  0
  2 29  1  0  0  0  0
M  END
>  <MMV ID>
MMV669848

>  <Blood Stage EC50 (uM)>
0.114

>  <Blood Stage pEC50>
6.943

>  <PfATP4>
Yes

$$$$
OSM-S-383
  StarDrop          2D                              

 30 33  0  0  0  0  0  0  0  0999 V2000
    5.2010    6.2946    0.0000 F   0  0  0  0  0  0  0  0  0  0  0  0
    4.8961    5.3422    0.0000 C   0  0  0  0  0  0  0  0  0  0  0  0
    5.5685    4.6019    0.0000 F   0  0  0  0  0  0  0  0  0  0  0  0
    3.9189    5.1300    0.0000 O   0  0  0  0  0  0  0  0  0  0  0  0
    3.6140    4.1776    0.0000 C   0  0  0  0  0  0  0  0  0  0  0  0
    2.6371    3.9640    0.0000 C   0  0  0  0  0  0  0  0  0  0  0  0
    2.3281    3.0129    0.0000 C   0  0  0  0  0  0  0  0  0  0  0  0
    4.2888    3.4325    0.0000 C   0  0  0  0  0  0  0  0  0  0  0  0
    3.9866    2.4739    0.0000 C   0  0  0  0  0  0  0  0  0  0  0  0
    3.0029    2.2678    0.0000 C   0  0  0  0  0  0  0  0  0  0  0  0
    2.6938    1.3168    0.0000 C   0  0  0  0  0  0  0  0  0  0  0  0
    3.2858    0.5022    0.0000 N   0  0  0  0  0  0  0  0  0  0  0  0
    2.6938   -0.3126    0.0000 N   0  0  0  0  0  0  0  0  0  0  0  0
    1.7360   -0.0013    0.0000 C   0  0  0  0  0  0  0  0  0  0  0  0
    0.8680   -0.4979    0.0000 C   0  0  0  0  0  0  0  0  0  0  0  0
    0.0000    0.0000    0.0000 N   0  0  0  0  0  0  0  0  0  0  0  0
   -0.0000    1.0058    0.0000 C   0  0  0  0  0  0  0  0  0  0  0  0
    0.8680    1.5137    0.0000 C   0  0  0  0  0  0  0  0  0  0  0  0
    0.8680    2.5137    0.0000 O   0  0  0  0  0  0  0  0  0  0  0  0
    0.0020    3.0137    0.0000 C   0  0  0  0  0  0  0  0  0  0  0  0
    0.0020    4.0137    0.0000 C   0  0  0  0  0  0  0  0  0  0  0  0
   -0.8640    4.5137    0.0000 C   0  0  0  0  0  0  0  0  0  0  0  0
   -0.8611    5.5188    0.0000 C   0  0  0  0  0  0  0  0  0  0  0  0
   -1.7360    6.0137    0.0000 C   0  0  0  0  0  0  0  0  0  0  0  0
   -1.7419    7.0137    0.0000 O   0  0  0  0  0  0  0  0  0  0  0  0
   -2.6108    7.5086    0.0000 C   0  0  0  0  0  0  0  0  0  0  0  0
   -2.6050    5.5085    0.0000 C   0  0  0  0  0  0  0  0  0  0  0  0
   -2.5992    4.5085    0.0000 C   0  0  0  0  0  0  0  0  0  0  0  0
   -1.7331    4.0085    0.0000 C   0  0  0  0  0  0  0  0  0  0  0  0
    1.7360    1.0058    0.0000 N   0  0  0  0  0  0  0  0  0  0  0  0
  1  2  1  0  0  0  0
  2  3  1  0  0  0  0
  2  4  1  0  0  0  0
  4  5  1  0  0  0  0
  5  6  1  0  0  0  0
  6  7  2  0  0  0  0
  7 10  1  0  0  0  0
  5  8  2  0  0  0  0
  8  9  1  0  0  0  0
  9 10  2  0  0  0  0
 10 11  1  0  0  0  0
 11 30  1  0  0  0  0
 11 12  2  0  0  0  0
 12 13  1  0  0  0  0
 13 14  2  0  0  0  0
 14 30  1  0  0  0  0
 14 15  1  0  0  0  0
 15 16  2  0  0  0  0
 16 17  1  0  0  0  0
 17 18  2  0  0  0  0
 18 19  1  0  0  0  0
 19 20  1  0  0  0  0
 20 21  1  0  0  0  0
 21 22  1  0  0  0  0
 22 29  1  0  0  0  0
 22 23  2  0  0  0  0
 23 24  1  0  0  0  0
 24 25  1  0  0  0  0
 25 26  1  0  0  0  0
 24 27  2  0  0  0  0
 27 28  1  0  0  0  0
 28 29  2  0  0  0  0
 18 30  1  0  0  0  0
M  END
>  <MMV ID>
MMV897711

>  <Blood Stage EC50 (uM)>
0.135

>  <Blood Stage pEC50>
6.87

>  <PfATP4>
Yes

$$$$
OSM-S-384
  StarDrop          2D                              

 30 33  0  0  0  0  0  0  0  0999 V2000
    5.2010    6.2946    0.0000 F   0  0  0  0  0  0  0  0  0  0  0  0
    4.8961    5.3422    0.0000 C   0  0  0  0  0  0  0  0  0  0  0  0
    5.5685    4.6019    0.0000 F   0  0  0  0  0  0  0  0  0  0  0  0
    3.9189    5.1300    0.0000 O   0  0  0  0  0  0  0  0  0  0  0  0
    3.6140    4.1776    0.0000 C   0  0  0  0  0  0  0  0  0  0  0  0
    2.6371    3.9640    0.0000 C   0  0  0  0  0  0  0  0  0  0  0  0
    2.3281    3.0129    0.0000 C   0  0  0  0  0  0  0  0  0  0  0  0
    4.2888    3.4325    0.0000 C   0  0  0  0  0  0  0  0  0  0  0  0
    3.9866    2.4739    0.0000 C   0  0  0  0  0  0  0  0  0  0  0  0
    3.0029    2.2678    0.0000 C   0  0  0  0  0  0  0  0  0  0  0  0
    2.6938    1.3168    0.0000 C   0  0  0  0  0  0  0  0  0  0  0  0
    3.2858    0.5022    0.0000 N   0  0  0  0  0  0  0  0  0  0  0  0
    2.6938   -0.3126    0.0000 N   0  0  0  0  0  0  0  0  0  0  0  0
    1.7360   -0.0013    0.0000 C   0  0  0  0  0  0  0  0  0  0  0  0
    0.8680   -0.4979    0.0000 C   0  0  0  0  0  0  0  0  0  0  0  0
    0.0000    0.0000    0.0000 N   0  0  0  0  0  0  0  0  0  0  0  0
   -0.0000    1.0058    0.0000 C   0  0  0  0  0  0  0  0  0  0  0  0
    0.8680    1.5137    0.0000 C   0  0  0  0  0  0  0  0  0  0  0  0
    0.8680    2.5137    0.0000 O   0  0  0  0  0  0  0  0  0  0  0  0
    0.0020    3.0137    0.0000 C   0  0  0  0  0  0  0  0  0  0  0  0
    0.0020    4.0137    0.0000 C   0  0  0  0  0  0  0  0  0  0  0  0
   -0.8640    4.5137    0.0000 C   0  0  0  0  0  0  0  0  0  0  0  0
   -1.7331    4.0085    0.0000 C   0  0  0  0  0  0  0  0  0  0  0  0
   -2.5992    4.5085    0.0000 C   0  0  0  0  0  0  0  0  0  0  0  0
   -2.6050    5.5085    0.0000 C   0  0  0  0  0  0  0  0  0  0  0  0
   -3.4732    6.0047    0.0000 O   0  0  0  0  0  0  0  0  0  0  0  0
   -4.3371    5.5009    0.0000 C   0  0  0  0  0  0  0  0  0  0  0  0
   -1.7360    6.0137    0.0000 C   0  0  0  0  0  0  0  0  0  0  0  0
   -0.8611    5.5188    0.0000 C   0  0  0  0  0  0  0  0  0  0  0  0
    1.7360    1.0058    0.0000 N   0  0  0  0  0  0  0  0  0  0  0  0
  1  2  1  0  0  0  0
  2  3  1  0  0  0  0
  2  4  1  0  0  0  0
  4  5  1  0  0  0  0
  5  6  1  0  0  0  0
  6  7  2  0  0  0  0
  7 10  1  0  0  0  0
  5  8  2  0  0  0  0
  8  9  1  0  0  0  0
  9 10  2  0  0  0  0
 10 11  1  0  0  0  0
 11 30  1  0  0  0  0
 11 12  2  0  0  0  0
 12 13  1  0  0  0  0
 13 14  2  0  0  0  0
 14 30  1  0  0  0  0
 14 15  1  0  0  0  0
 15 16  2  0  0  0  0
 16 17  1  0  0  0  0
 17 18  2  0  0  0  0
 18 19  1  0  0  0  0
 19 20  1  0  0  0  0
 20 21  1  0  0  0  0
 21 22  1  0  0  0  0
 22 29  1  0  0  0  0
 22 23  2  0  0  0  0
 23 24  1  0  0  0  0
 24 25  2  0  0  0  0
 25 26  1  0  0  0  0
 26 27  1  0  0  0  0
 25 28  1  0  0  0  0
 28 29  2  0  0  0  0
 18 30  1  0  0  0  0
M  END
>  <MMV ID>
MMV897712

>  <Blood Stage EC50 (uM)>
0.928

>  <Blood Stage pEC50>
6.032

>  <PfATP4>
Yes

$$$$
OSM-S-389
  StarDrop          2D                              

 33 36  0  0  0  0  0  0  0  0999 V2000
   -1.7419    6.7579    0.0000 F   0  0  0  0  0  0  0  0  0  0  0  0
   -1.7360    5.7579    0.0000 C   0  0  0  0  0  0  0  0  0  0  0  0
   -2.6050    5.2527    0.0000 C   0  0  0  0  0  0  0  0  0  0  0  0
   -2.5992    4.2527    0.0000 C   0  0  0  0  0  0  0  0  0  0  0  0
   -1.7331    3.7527    0.0000 C   0  0  0  0  0  0  0  0  0  0  0  0
   -0.8641    4.2579    0.0000 C   0  0  0  0  0  0  0  0  0  0  0  0
    0.0020    3.7579    0.0000 C   0  0  0  0  0  0  0  0  0  0  0  0
    0.0020    2.7579    0.0000 C   0  0  0  0  0  0  0  0  0  0  0  0
    0.8680    2.2579    0.0000 O   0  0  0  0  0  0  0  0  0  0  0  0
    0.8680    0.5079    0.0000 C   0  0  0  0  0  0  0  0  0  0  0  0
    0.0000    0.0000    0.0000 C   0  0  0  0  0  0  0  0  0  0  0  0
   -0.0000   -1.0058    0.0000 N   0  0  0  0  0  0  0  0  0  0  0  0
    0.8680   -1.5037    0.0000 C   0  0  0  0  0  0  0  0  0  0  0  0
    1.7360   -1.0071    0.0000 C   0  0  0  0  0  0  0  0  0  0  0  0
    2.6938   -1.3184    0.0000 N   0  0  0  0  0  0  0  0  0  0  0  0
    3.2858   -0.5036    0.0000 N   0  0  0  0  0  0  0  0  0  0  0  0
    2.6938    0.3110    0.0000 C   0  0  0  0  0  0  0  0  0  0  0  0
    1.7360   -0.0000    0.0000 N   0  0  0  0  0  0  0  0  0  0  0  0
    3.0028    1.2620    0.0000 C   0  0  0  0  0  0  0  0  0  0  0  0
    2.3281    2.0071    0.0000 C   0  0  0  0  0  0  0  0  0  0  0  0
    2.6371    2.9582    0.0000 C   0  0  0  0  0  0  0  0  0  0  0  0
    3.6140    3.1718    0.0000 C   0  0  0  0  0  0  0  0  0  0  0  0
    3.9189    4.1242    0.0000 O   0  0  0  0  0  0  0  0  0  0  0  0
    3.2465    4.8644    0.0000 C   0  0  0  0  0  0  0  0  0  0  0  0
    2.2693    4.6522    0.0000 F   0  0  0  0  0  0  0  0  0  0  0  0
    3.5514    5.8168    0.0000 F   0  0  0  0  0  0  0  0  0  0  0  0
    4.2888    2.4267    0.0000 C   0  0  0  0  0  0  0  0  0  0  0  0
    3.9866    1.4681    0.0000 C   0  0  0  0  0  0  0  0  0  0  0  0
    0.8680    4.2579    0.0000 N   0  0  0  0  0  0  0  0  0  0  0  0
    1.7340    3.7579    0.0000 C   0  0  0  0  0  0  0  0  0  0  0  0
    0.8680    5.2579    0.0000 C   0  0  0  0  0  0  0  0  0  0  0  0
   -0.8611    5.2630    0.0000 C   0  0  0  0  0  0  0  0  0  0  0  0
   -3.4732    5.7489    0.0000 F   0  0  0  0  0  0  0  0  0  0  0  0
  1  2  1  0  0  0  0
  2 32  1  0  0  0  0
  2  3  2  0  0  0  0
  3  4  1  0  0  0  0
  4  5  2  0  0  0  0
  5  6  1  0  0  0  0
  6  7  1  0  0  0  0
  7  8  1  0  0  0  0
  8  9  1  0  0  0  0
  9 10  1  0  0  0  0
 10 18  1  0  0  0  0
 10 11  2  0  0  0  0
 11 12  1  0  0  0  0
 12 13  2  0  0  0  0
 13 14  1  0  0  0  0
 14 18  1  0  0  0  0
 14 15  2  0  0  0  0
 15 16  1  0  0  0  0
 16 17  2  0  0  0  0
 17 18  1  0  0  0  0
 17 19  1  0  0  0  0
 19 28  1  0  0  0  0
 19 20  2  0  0  0  0
 20 21  1  0  0  0  0
 21 22  2  0  0  0  0
 22 23  1  0  0  0  0
 23 24  1  0  0  0  0
 24 25  1  0  0  0  0
 24 26  1  0  0  0  0
 22 27  1  0  0  0  0
 27 28  2  0  0  0  0
  7 29  1  0  0  0  0
 29 30  1  0  0  0  0
 29 31  1  0  0  0  0
  6 32  2  0  0  0  0
  3 33  1  0  0  0  0
M  END
>  <MMV ID>
MMV897763

>  <Blood Stage EC50 (uM)>
0.189

>  <Blood Stage pEC50>
6.724

>  <PfATP4>
Yes

$$$$
OSM-S-390
  StarDrop          2D                              

 31 34  0  0  0  0  0  0  0  0999 V2000
    5.5806    4.5820    0.0000 F   0  0  0  0  0  0  0  0  0  0  0  0
    4.9147    5.3281    0.0000 C   0  0  0  0  0  0  0  0  0  0  0  0
    3.9357    5.1246    0.0000 O   0  0  0  0  0  0  0  0  0  0  0  0
    3.6224    4.1749    0.0000 C   0  0  0  0  0  0  0  0  0  0  0  0
    4.2939    3.4269    0.0000 C   0  0  0  0  0  0  0  0  0  0  0  0
    3.9807    2.4771    0.0000 C   0  0  0  0  0  0  0  0  0  0  0  0
    3.0029    2.2678    0.0000 C   0  0  0  0  0  0  0  0  0  0  0  0
    2.6938    1.3168    0.0000 C   0  0  0  0  0  0  0  0  0  0  0  0
    3.2858    0.5022    0.0000 N   0  0  0  0  0  0  0  0  0  0  0  0
    2.6938   -0.3126    0.0000 N   0  0  0  0  0  0  0  0  0  0  0  0
    1.7360   -0.0013    0.0000 C   0  0  0  0  0  0  0  0  0  0  0  0
    0.8680   -0.4979    0.0000 C   0  0  0  0  0  0  0  0  0  0  0  0
    0.0000    0.0000    0.0000 N   0  0  0  0  0  0  0  0  0  0  0  0
   -0.0000    1.0058    0.0000 C   0  0  0  0  0  0  0  0  0  0  0  0
    0.8680    1.5137    0.0000 C   0  0  0  0  0  0  0  0  0  0  0  0
    1.7360    1.0058    0.0000 N   0  0  0  0  0  0  0  0  0  0  0  0
    0.8680    2.5137    0.0000 O   0  0  0  0  0  0  0  0  0  0  0  0
    0.0020    3.0137    0.0000 C   0  0  0  0  0  0  0  0  0  0  0  0
    0.0020    4.0137    0.0000 C   0  0  0  0  0  0  0  0  0  0  0  0
   -0.8640    4.5137    0.0000 C   0  0  0  0  0  0  0  0  0  0  0  0
   -0.8611    5.5188    0.0000 C   0  0  0  0  0  0  0  0  0  0  0  0
   -1.7360    6.0137    0.0000 C   0  0  0  0  0  0  0  0  0  0  0  0
   -1.7419    7.0137    0.0000 F   0  0  0  0  0  0  0  0  0  0  0  0
   -2.6050    5.5085    0.0000 C   0  0  0  0  0  0  0  0  0  0  0  0
   -2.5992    4.5085    0.0000 C   0  0  0  0  0  0  0  0  0  0  0  0
   -1.7331    4.0085    0.0000 C   0  0  0  0  0  0  0  0  0  0  0  0
   -3.4732    6.0047    0.0000 F   0  0  0  0  0  0  0  0  0  0  0  0
    0.8680    4.5137    0.0000 O   0  0  0  0  0  0  0  0  0  0  0  0
    2.3314    3.0159    0.0000 C   0  0  0  0  0  0  0  0  0  0  0  0
    2.6377    3.9732    0.0000 C   0  0  0  0  0  0  0  0  0  0  0  0
    5.2280    6.2778    0.0000 F   0  0  0  0  0  0  0  0  0  0  0  0
  1  2  1  0  0  0  0
  2  3  1  0  0  0  0
  3  4  1  0  0  0  0
  4 30  1  0  0  0  0
  4  5  2  0  0  0  0
  5  6  1  0  0  0  0
  6  7  2  0  0  0  0
  7  8  1  0  0  0  0
  8 16  1  0  0  0  0
  8  9  2  0  0  0  0
  9 10  1  0  0  0  0
 10 11  2  0  0  0  0
 11 16  1  0  0  0  0
 11 12  1  0  0  0  0
 12 13  2  0  0  0  0
 13 14  1  0  0  0  0
 14 15  2  0  0  0  0
 15 16  1  0  0  0  0
 15 17  1  0  0  0  0
 17 18  1  0  0  0  0
 18 19  1  0  0  0  0
 19 20  1  0  0  0  0
 20 26  1  0  0  0  0
 20 21  2  0  0  0  0
 21 22  1  0  0  0  0
 22 23  1  0  0  0  0
 22 24  2  0  0  0  0
 24 25  1  0  0  0  0
 25 26  2  0  0  0  0
 24 27  1  0  0  0  0
 19 28  1  0  0  0  0
  7 29  1  0  0  0  0
 29 30  2  0  0  0  0
  2 31  1  0  0  0  0
M  END
>  <MMV ID>
MMV672687

>  <Blood Stage EC50 (uM)>
0.074

>  <Blood Stage pEC50>
7.131

>  <PfATP4>
Yes

$$$$
OSM-X-011
  StarDrop          2D                              

 28 31  0  0  0  0  0  0  0  0999 V2000
    5.2010    6.2946    0.0000 F   0  0  0  0  0  0  0  0  0  0  0  0
    4.8961    5.3422    0.0000 C   0  0  0  0  0  0  0  0  0  0  0  0
    5.5685    4.6019    0.0000 F   0  0  0  0  0  0  0  0  0  0  0  0
    3.9189    5.1300    0.0000 O   0  0  0  0  0  0  0  0  0  0  0  0
    3.6140    4.1776    0.0000 C   0  0  0  0  0  0  0  0  0  0  0  0
    2.6371    3.9640    0.0000 C   0  0  0  0  0  0  0  0  0  0  0  0
    2.3281    3.0129    0.0000 C   0  0  0  0  0  0  0  0  0  0  0  0
    4.2888    3.4325    0.0000 C   0  0  0  0  0  0  0  0  0  0  0  0
    3.9866    2.4739    0.0000 C   0  0  0  0  0  0  0  0  0  0  0  0
    3.0029    2.2678    0.0000 C   0  0  0  0  0  0  0  0  0  0  0  0
    2.6938    1.3168    0.0000 C   0  0  0  0  0  0  0  0  0  0  0  0
    3.2858    0.5022    0.0000 N   0  0  0  0  0  0  0  0  0  0  0  0
    2.6938   -0.3126    0.0000 N   0  0  0  0  0  0  0  0  0  0  0  0
    1.7360   -0.0013    0.0000 C   0  0  0  0  0  0  0  0  0  0  0  0
    0.8680   -0.4979    0.0000 C   0  0  0  0  0  0  0  0  0  0  0  0
    0.0000    0.0000    0.0000 N   0  0  0  0  0  0  0  0  0  0  0  0
   -0.0000    1.0058    0.0000 C   0  0  0  0  0  0  0  0  0  0  0  0
    0.8680    1.5137    0.0000 C   0  0  0  0  0  0  0  0  0  0  0  0
    0.8680    2.5137    0.0000 C   0  0  0  0  0  0  0  0  0  0  0  0
    0.0020    3.0137    0.0000 C   0  0  0  0  0  0  0  0  0  0  0  0
    0.0020    4.0137    0.0000 C   0  0  0  0  0  0  0  0  0  0  0  0
   -0.8640    4.5137    0.0000 C   0  0  0  0  0  0  0  0  0  0  0  0
   -1.7331    4.0085    0.0000 C   0  0  0  0  0  0  0  0  0  0  0  0
   -2.5992    4.5085    0.0000 C   0  0  0  0  0  0  0  0  0  0  0  0
   -2.6050    5.5085    0.0000 C   0  0  0  0  0  0  0  0  0  0  0  0
   -1.7360    6.0137    0.0000 C   0  0  0  0  0  0  0  0  0  0  0  0
   -0.8611    5.5188    0.0000 C   0  0  0  0  0  0  0  0  0  0  0  0
    1.7360    1.0058    0.0000 N   0  0  0  0  0  0  0  0  0  0  0  0
  1  2  1  0  0  0  0
  2  3  1  0  0  0  0
  2  4  1  0  0  0  0
  4  5  1  0  0  0  0
  5  6  1  0  0  0  0
  6  7  2  0  0  0  0
  7 10  1  0  0  0  0
  5  8  2  0  0  0  0
  8  9  1  0  0  0  0
  9 10  2  0  0  0  0
 10 11  1  0  0  0  0
 11 28  1  0  0  0  0
 11 12  2  0  0  0  0
 12 13  1  0  0  0  0
 13 14  2  0  0  0  0
 14 28  1  0  0  0  0
 14 15  1  0  0  0  0
 15 16  2  0  0  0  0
 16 17  1  0  0  0  0
 17 18  2  0  0  0  0
 18 19  1  0  0  0  0
 19 20  1  0  0  0  0
 20 21  1  0  0  0  0
 21 22  1  0  0  0  0
 22 27  1  0  0  0  0
 22 23  2  0  0  0  0
 23 24  1  0  0  0  0
 24 25  2  0  0  0  0
 25 26  1  0  0  0  0
 26 27  2  0  0  0  0
 18 28  1  0  0  0  0
M  END
>  <MMV ID>
MMV669304

>  <Blood Stage EC50 (uM)>
0.28

>  <Blood Stage pEC50>
6.553

>  <PfATP4>
Yes

$$$$
OSM-X-016
  StarDrop          2D                              

 30 33  0  0  0  0  0  0  0  0999 V2000
    5.2010    6.2946    0.0000 F   0  0  0  0  0  0  0  0  0  0  0  0
    4.8961    5.3422    0.0000 C   0  0  0  0  0  0  0  0  0  0  0  0
    5.5685    4.6019    0.0000 F   0  0  0  0  0  0  0  0  0  0  0  0
    3.9189    5.1300    0.0000 O   0  0  0  0  0  0  0  0  0  0  0  0
    3.6140    4.1776    0.0000 C   0  0  0  0  0  0  0  0  0  0  0  0
    2.6371    3.9640    0.0000 C   0  0  0  0  0  0  0  0  0  0  0  0
    2.3281    3.0129    0.0000 C   0  0  0  0  0  0  0  0  0  0  0  0
    4.2888    3.4325    0.0000 C   0  0  0  0  0  0  0  0  0  0  0  0
    3.9866    2.4739    0.0000 C   0  0  0  0  0  0  0  0  0  0  0  0
    3.0029    2.2678    0.0000 C   0  0  0  0  0  0  0  0  0  0  0  0
    2.6938    1.3168    0.0000 C   0  0  0  0  0  0  0  0  0  0  0  0
    3.2858    0.5022    0.0000 N   0  0  0  0  0  0  0  0  0  0  0  0
    2.6938   -0.3126    0.0000 N   0  0  0  0  0  0  0  0  0  0  0  0
    1.7360   -0.0013    0.0000 C   0  0  0  0  0  0  0  0  0  0  0  0
    0.8680   -0.4979    0.0000 C   0  0  0  0  0  0  0  0  0  0  0  0
    0.0000    0.0000    0.0000 N   0  0  0  0  0  0  0  0  0  0  0  0
   -0.0000    1.0058    0.0000 C   0  0  0  0  0  0  0  0  0  0  0  0
    0.8680    1.5137    0.0000 C   0  0  0  0  0  0  0  0  0  0  0  0
    0.8680    2.5137    0.0000 C   0  0  0  0  0  0  0  0  0  0  0  0
    0.0020    3.0137    0.0000 O   0  0  0  0  0  0  0  0  0  0  0  0
    0.0020    4.0137    0.0000 C   0  0  0  0  0  0  0  0  0  0  0  0
   -0.8640    4.5137    0.0000 C   0  0  0  0  0  0  0  0  0  0  0  0
   -0.8611    5.5188    0.0000 C   0  0  0  0  0  0  0  0  0  0  0  0
   -1.7360    6.0137    0.0000 C   0  0  0  0  0  0  0  0  0  0  0  0
   -1.7419    7.0137    0.0000 F   0  0  0  0  0  0  0  0  0  0  0  0
   -2.6050    5.5085    0.0000 C   0  0  0  0  0  0  0  0  0  0  0  0
   -3.4732    6.0047    0.0000 F   0  0  0  0  0  0  0  0  0  0  0  0
   -2.5992    4.5085    0.0000 C   0  0  0  0  0  0  0  0  0  0  0  0
   -1.7331    4.0085    0.0000 C   0  0  0  0  0  0  0  0  0  0  0  0
    1.7360    1.0058    0.0000 N   0  0  0  0  0  0  0  0  0  0  0  0
  1  2  1  0  0  0  0
  2  3  1  0  0  0  0
  2  4  1  0  0  0  0
  4  5  1  0  0  0  0
  5  6  1  0  0  0  0
  6  7  2  0  0  0  0
  7 10  1  0  0  0  0
  5  8  2  0  0  0  0
  8  9  1  0  0  0  0
  9 10  2  0  0  0  0
 10 11  1  0  0  0  0
 11 30  1  0  0  0  0
 11 12  2  0  0  0  0
 12 13  1  0  0  0  0
 13 14  2  0  0  0  0
 14 30  1  0  0  0  0
 14 15  1  0  0  0  0
 15 16  2  0  0  0  0
 16 17  1  0  0  0  0
 17 18  2  0  0  0  0
 18 19  1  0  0  0  0
 19 20  1  0  0  0  0
 20 21  1  0  0  0  0
 21 22  1  0  0  0  0
 22 29  1  0  0  0  0
 22 23  2  0  0  0  0
 23 24  1  0  0  0  0
 24 25  1  0  0  0  0
 24 26  2  0  0  0  0
 26 27  1  0  0  0  0
 26 28  1  0  0  0  0
 28 29  2  0  0  0  0
 18 30  1  0  0  0  0
M  END
>  <MMV ID>
MMV669360

>  <Blood Stage EC50 (uM)>
0.356

>  <Blood Stage pEC50>
6.449

>  <PfATP4>
Yes

$$$$
