 
data_mht17pt3_s1598_hP
 
_audit_creation_method            'SHELXL-2017/1'
_shelx_SHELXL_version_number      '2017/1'
_chemical_name_systematic         ?
_chemical_name_common             ?
_chemical_melting_point           ?
_chemical_formula_moiety          ?
_chemical_formula_sum
 'C19 H14 F3 N5 O' 
_chemical_formula_weight          385.35

loop_
 _atom_type_symbol
 _atom_type_description
 _atom_type_scat_dispersion_real
 _atom_type_scat_dispersion_imag
 _atom_type_scat_source
 'C'  'C'   0.0033   0.0016
 'International Tables Vol C Tables 4.2.6.8 and 6.1.1.4'
 'H'  'H'   0.0000   0.0000
 'International Tables Vol C Tables 4.2.6.8 and 6.1.1.4'
 'N'  'N'   0.0061   0.0033
 'International Tables Vol C Tables 4.2.6.8 and 6.1.1.4'
 'O'  'O'   0.0106   0.0060
 'International Tables Vol C Tables 4.2.6.8 and 6.1.1.4'
 'F'  'F'   0.0171   0.0103
 'International Tables Vol C Tables 4.2.6.8 and 6.1.1.4'
 
_space_group_crystal_system       trigonal
_space_group_IT_number            145
_space_group_name_H-M_alt         'P 32'
_space_group_name_Hall            'P 32'
 
_shelx_space_group_comment
;
The symmetry employed for this shelxl refinement is uniquely defined
by the following loop, which should always be used as a source of
symmetry information in preference to the above space-group names.
They are only intended as comments.
;
 
loop_
 _space_group_symop_operation_xyz
 'x, y, z'
 '-y, x-y, z+2/3'
 '-x+y, -x, z+1/3'
 
_cell_length_a                    10.8463(18)
_cell_length_b                    10.8463(18)
_cell_length_c                    12.997(3)
_cell_angle_alpha                 90
_cell_angle_beta                  90
_cell_angle_gamma                 120
_cell_volume                      1324.1(5)
_cell_formula_units_Z             3
_cell_measurement_temperature     100(2)
_cell_measurement_reflns_used     ?
_cell_measurement_theta_min       ?
_cell_measurement_theta_max       ?
 
_exptl_crystal_description        ?
_exptl_crystal_colour             ?
_exptl_crystal_density_meas       ?
_exptl_crystal_density_method     ?
_exptl_crystal_density_diffrn     1.450          
_exptl_crystal_F_000              594
_exptl_transmission_factor_min    ?
_exptl_transmission_factor_max    ?
_exptl_crystal_size_max           0.192
_exptl_crystal_size_mid           0.165
_exptl_crystal_size_min           0.144
_exptl_absorpt_coefficient_mu     0.116
_shelx_estimated_absorpt_T_min    0.978
_shelx_estimated_absorpt_T_max    0.983
_exptl_absorpt_correction_type    ?
_exptl_absorpt_correction_T_min   ?
_exptl_absorpt_correction_T_max   ?
_exptl_absorpt_process_details    ?
_exptl_absorpt_special_details    ?
_diffrn_ambient_temperature       100(2)
_diffrn_radiation_wavelength      0.71073
_diffrn_radiation_type            MoK\a
_diffrn_source                    ?
_diffrn_measurement_device_type   ?
_diffrn_measurement_method        ?
_diffrn_detector_area_resol_mean  ?
_diffrn_reflns_number             25130
_diffrn_reflns_av_unetI/netI      0.0324
_diffrn_reflns_av_R_equivalents   0.0587
_diffrn_reflns_limit_h_min        -14
_diffrn_reflns_limit_h_max        15
_diffrn_reflns_limit_k_min        -15
_diffrn_reflns_limit_k_max        15
_diffrn_reflns_limit_l_min        -18
_diffrn_reflns_limit_l_max        18
_diffrn_reflns_theta_min          2.168
_diffrn_reflns_theta_max          30.991
_diffrn_reflns_theta_full         25.242
_diffrn_measured_fraction_theta_max   0.968
_diffrn_measured_fraction_theta_full  0.999
_diffrn_reflns_Laue_measured_fraction_max    0.968
_diffrn_reflns_Laue_measured_fraction_full   0.999
_diffrn_reflns_point_group_measured_fraction_max   0.941
_diffrn_reflns_point_group_measured_fraction_full  0.998
_reflns_number_total              5316
_reflns_number_gt                 5006
_reflns_threshold_expression      'I > 2\s(I)'
_reflns_Friedel_coverage          0.944
_reflns_Friedel_fraction_max      0.914
_reflns_Friedel_fraction_full     0.997
 
_reflns_special_details
;
 Reflections were merged by SHELXL according to the crystal
 class for the calculation of statistics and refinement.
 
 _reflns_Friedel_fraction is defined as the number of unique
 Friedel pairs measured divided by the number that would be
 possible theoretically, ignoring centric projections and
 systematic absences.
;
 
_computing_data_collection        ?
_computing_cell_refinement        ?
_computing_data_reduction         ?
_computing_structure_solution     'SHELXT 2014/5 (Sheldrick, 2014)'
_computing_structure_refinement 'SHELXL-2017/1 (Sheldrick, 2017)'
_computing_molecular_graphics     ?
_computing_publication_material   ?
_refine_special_details           ?
_refine_ls_structure_factor_coef  Fsqd
_refine_ls_matrix_type            full
_refine_ls_weighting_scheme       calc
_refine_ls_weighting_details
'w=1/[\s^2^(Fo^2^)+(0.0400P)^2^+0.1000P] where P=(Fo^2^+2Fc^2^)/3'
_atom_sites_solution_primary      ?
_atom_sites_solution_secondary    ?
_atom_sites_solution_hydrogens    geom
_refine_ls_hydrogen_treatment     constr
_refine_ls_extinction_method      none
_refine_ls_extinction_coef        .
_refine_ls_abs_structure_details
;
 Flack x determined using 2289 quotients [(I+)-(I-)]/[(I+)+(I-)]
 (Parsons, Flack and Wagner, Acta Cryst. B69 (2013) 249-259).
;
_refine_ls_abs_structure_Flack    0.01(19)
_chemical_absolute_configuration  ?
_refine_ls_number_reflns          5316
_refine_ls_number_parameters      253
_refine_ls_number_restraints      1
_refine_ls_R_factor_all           0.0427
_refine_ls_R_factor_gt            0.0390
_refine_ls_wR_factor_ref          0.0989
_refine_ls_wR_factor_gt           0.0979
_refine_ls_goodness_of_fit_ref    1.371
_refine_ls_restrained_S_all       1.371
_refine_ls_shift/su_max           0.000
_refine_ls_shift/su_mean          0.000
 
loop_
 _atom_site_label
 _atom_site_type_symbol
 _atom_site_fract_x
 _atom_site_fract_y
 _atom_site_fract_z
 _atom_site_U_iso_or_equiv
 _atom_site_adp_type
 _atom_site_occupancy
 _atom_site_site_symmetry_order  
 _atom_site_calc_flag
 _atom_site_refinement_flags_posn
 _atom_site_refinement_flags_adp
 _atom_site_refinement_flags_occupancy
 _atom_site_disorder_assembly
 _atom_site_disorder_group
F1 F 0.2413(2) -0.01228(19) 0.67210(18) 0.0691(6) Uani 1 1 d . . . . .
F2 F 0.4541(2) 0.02521(19) 0.64976(14) 0.0578(5) Uani 1 1 d . . . . .
F3 F 0.4158(2) 0.14507(18) 0.76212(12) 0.0562(5) Uani 1 1 d . . . . .
O1 O 0.48343(14) 0.51052(14) 0.37777(10) 0.0228(3) Uani 1 1 d . . . . .
N1 N 0.29780(18) 0.18226(18) 0.52939(13) 0.0277(3) Uani 1 1 d . . . . .
N2 N 0.56272(15) 0.42034(15) 0.50244(11) 0.0177(3) Uani 1 1 d . . . . .
N3 N 0.66147(19) 0.35937(19) 0.62902(14) 0.0278(3) Uani 1 1 d . . . . .
N4 N 0.76199(17) 0.48670(18) 0.58698(14) 0.0266(3) Uani 1 1 d . . . . .
N5 N 0.9781(2) 0.9080(2) 0.34860(16) 0.0371(4) Uani 1 1 d . . . . .
C1 C 0.45012(18) 0.40408(19) 0.44217(13) 0.0190(3) Uani 1 1 d . . . . .
C2 C 0.3203(2) 0.2830(2) 0.45712(15) 0.0245(4) Uani 1 1 d . . . . .
H2 H 0.242533 0.268737 0.415147 0.029 Uiso 1 1 calc R U . . .
C3 C 0.4035(2) 0.2001(2) 0.58750(15) 0.0254(4) Uani 1 1 d . . . . .
C4 C 0.54229(19) 0.32034(19) 0.57758(14) 0.0221(3) Uani 1 1 d . . . . .
C5 C 0.70468(18) 0.52320(19) 0.51161(14) 0.0205(3) Uani 1 1 d . . . . .
C6 C 0.78988(18) 0.65449(19) 0.45191(14) 0.0216(3) Uani 1 1 d . . . . .
C7 C 0.8783(2) 0.7782(2) 0.50631(15) 0.0243(4) Uani 1 1 d . . . . .
H7 H 0.876152 0.778929 0.579368 0.029 Uiso 1 1 calc R U . . .
C8 C 0.9700(2) 0.9007(2) 0.45203(17) 0.0304(4) Uani 1 1 d . . . . .
H8 H 1.030535 0.984201 0.490131 0.037 Uiso 1 1 calc R U . . .
C9 C 0.8905(3) 0.7877(2) 0.29723(18) 0.0381(5) Uani 1 1 d . . . . .
H9 H 0.893273 0.790864 0.224177 0.046 Uiso 1 1 calc R U . . .
C10 C 0.7962(2) 0.6590(2) 0.34403(16) 0.0294(4) Uani 1 1 d . . . . .
H10 H 0.737819 0.576681 0.304118 0.035 Uiso 1 1 calc R U . . .
C11 C 0.3772(3) 0.0879(2) 0.66774(19) 0.0380(5) Uani 1 1 d . . . . .
C12 C 0.3784(2) 0.4881(2) 0.29867(16) 0.0310(4) Uani 1 1 d . . . . .
H12A H 0.287692 0.468654 0.330918 0.037 Uiso 1 1 calc R U . . .
H12B H 0.359674 0.405873 0.254813 0.037 Uiso 1 1 calc R U . . .
C13 C 0.4398(3) 0.6233(3) 0.23449(16) 0.0362(5) Uani 1 1 d . . . . .
H13A H 0.539596 0.653431 0.216548 0.043 Uiso 1 1 calc R U . . .
H13B H 0.385183 0.602802 0.169563 0.043 Uiso 1 1 calc R U . . .
C14 C 0.4358(2) 0.7439(2) 0.28958(15) 0.0283(4) Uani 1 1 d . . . . .
C15 C 0.5489(3) 0.8401(3) 0.34954(19) 0.0413(5) Uani 1 1 d . . . . .
H15 H 0.632608 0.833119 0.354524 0.050 Uiso 1 1 calc R U . . .
C16 C 0.5400(5) 0.9474(3) 0.4027(2) 0.0695(12) Uani 1 1 d . . . . .
H16 H 0.617146 1.012423 0.444442 0.083 Uiso 1 1 calc R U . . .
C17 C 0.4207(7) 0.9591(4) 0.3947(3) 0.0834(16) Uani 1 1 d . . . . .
H17 H 0.415588 1.033028 0.430079 0.100 Uiso 1 1 calc R U . . .
C18 C 0.3069(5) 0.8631(5) 0.3349(3) 0.0739(13) Uani 1 1 d . . . . .
H18 H 0.223810 0.871039 0.329788 0.089 Uiso 1 1 calc R U . . .
C19 C 0.3143(3) 0.7555(3) 0.2827(2) 0.0471(6) Uani 1 1 d . . . . .
H19 H 0.236052 0.689588 0.242182 0.056 Uiso 1 1 calc R U . . .
 
loop_
 _atom_site_aniso_label
 _atom_site_aniso_U_11
 _atom_site_aniso_U_22
 _atom_site_aniso_U_33
 _atom_site_aniso_U_23
 _atom_site_aniso_U_13
 _atom_site_aniso_U_12
F1 0.0529(10) 0.0385(8) 0.0855(14) 0.0348(9) 0.0073(9) -0.0001(7)
F2 0.0914(14) 0.0508(9) 0.0494(9) 0.0183(7) 0.0139(9) 0.0493(10)
F3 0.0897(14) 0.0453(9) 0.0280(7) 0.0127(6) 0.0089(8) 0.0296(9)
O1 0.0239(6) 0.0222(6) 0.0217(6) -0.0016(5) -0.0046(5) 0.0110(5)
N1 0.0229(7) 0.0221(7) 0.0303(8) -0.0022(6) 0.0037(6) 0.0054(6)
N2 0.0161(6) 0.0163(6) 0.0179(6) -0.0015(5) 0.0000(5) 0.0059(5)
N3 0.0285(8) 0.0282(8) 0.0277(8) 0.0016(6) -0.0031(6) 0.0150(7)
N4 0.0219(7) 0.0279(8) 0.0291(8) -0.0020(7) -0.0044(6) 0.0119(6)
N5 0.0313(9) 0.0261(8) 0.0395(10) -0.0019(7) 0.0124(8) 0.0036(7)
C1 0.0179(7) 0.0198(7) 0.0193(8) -0.0049(6) -0.0019(6) 0.0095(6)
C2 0.0185(7) 0.0240(8) 0.0265(9) -0.0050(7) -0.0025(6) 0.0073(7)
C3 0.0281(9) 0.0195(8) 0.0238(9) 0.0022(6) 0.0049(7) 0.0084(7)
C4 0.0256(8) 0.0215(8) 0.0200(8) 0.0000(6) 0.0000(7) 0.0124(7)
C5 0.0153(7) 0.0200(7) 0.0225(8) -0.0047(6) -0.0021(6) 0.0061(6)
C6 0.0157(7) 0.0204(8) 0.0250(9) -0.0027(6) 0.0014(6) 0.0062(6)
C7 0.0198(7) 0.0229(8) 0.0271(9) -0.0057(7) -0.0004(7) 0.0084(7)
C8 0.0225(8) 0.0227(9) 0.0384(11) -0.0085(8) 0.0021(8) 0.0055(7)
C9 0.0376(11) 0.0293(10) 0.0312(11) -0.0015(8) 0.0122(9) 0.0044(9)
C10 0.0302(9) 0.0217(9) 0.0255(9) -0.0043(7) 0.0054(7) 0.0048(7)
C11 0.0479(13) 0.0246(9) 0.0353(11) 0.0077(8) 0.0071(10) 0.0136(9)
C12 0.0383(11) 0.0292(9) 0.0287(10) -0.0077(8) -0.0173(8) 0.0192(9)
C13 0.0572(14) 0.0402(11) 0.0203(9) -0.0025(8) -0.0067(9) 0.0313(11)
C14 0.0386(10) 0.0294(9) 0.0211(8) 0.0065(7) 0.0025(7) 0.0202(8)
C15 0.0494(13) 0.0332(11) 0.0312(11) 0.0038(9) -0.0017(10) 0.0131(10)
C16 0.128(3) 0.0280(12) 0.0326(13) -0.0002(10) 0.0025(16) 0.0243(17)
C17 0.180(5) 0.060(2) 0.0477(18) 0.0241(16) 0.047(3) 0.088(3)
C18 0.107(3) 0.085(3) 0.076(3) 0.049(2) 0.049(2) 0.083(3)
C19 0.0458(14) 0.0545(15) 0.0522(15) 0.0254(12) 0.0097(11) 0.0336(13)
 
_geom_special_details
;
 All esds (except the esd in the dihedral angle between two l.s. planes)
 are estimated using the full covariance matrix.  The cell esds are taken
 into account individually in the estimation of esds in distances, angles
 and torsion angles; correlations between esds in cell parameters are only
 used when they are defined by crystal symmetry.  An approximate (isotropic)
 treatment of cell esds is used for estimating esds involving l.s. planes.
;
 
loop_
 _geom_bond_atom_site_label_1
 _geom_bond_atom_site_label_2
 _geom_bond_distance
 _geom_bond_site_symmetry_2
 _geom_bond_publ_flag
F1 C11 1.325(3) . ?
F2 C11 1.334(3) . ?
F3 C11 1.343(3) . ?
O1 C1 1.322(2) . ?
O1 C12 1.462(2) . ?
N1 C3 1.304(3) . ?
N1 C2 1.367(3) . ?
N2 C5 1.383(2) . ?
N2 C1 1.386(2) . ?
N2 C4 1.392(2) . ?
N3 C4 1.323(2) . ?
N3 N4 1.374(2) . ?
N4 C5 1.322(2) . ?
N5 C9 1.346(3) . ?
N5 C8 1.347(3) . ?
C1 C2 1.377(2) . ?
C2 H2 0.9500 . ?
C3 C4 1.421(3) . ?
C3 C11 1.517(3) . ?
C5 C6 1.472(3) . ?
C6 C7 1.390(2) . ?
C6 C10 1.403(3) . ?
C7 C8 1.389(3) . ?
C7 H7 0.9500 . ?
C8 H8 0.9500 . ?
C9 C10 1.392(3) . ?
C9 H9 0.9500 . ?
C10 H10 0.9500 . ?
C12 C13 1.521(3) . ?
C12 H12A 0.9900 . ?
C12 H12B 0.9900 . ?
C13 C14 1.510(3) . ?
C13 H13A 0.9900 . ?
C13 H13B 0.9900 . ?
C14 C15 1.386(3) . ?
C14 C19 1.388(3) . ?
C15 C16 1.398(4) . ?
C15 H15 0.9500 . ?
C16 C17 1.366(7) . ?
C16 H16 0.9500 . ?
C17 C18 1.388(7) . ?
C17 H17 0.9500 . ?
C18 C19 1.386(5) . ?
C18 H18 0.9500 . ?
C19 H19 0.9500 . ?
 
loop_
 _geom_angle_atom_site_label_1
 _geom_angle_atom_site_label_2
 _geom_angle_atom_site_label_3
 _geom_angle
 _geom_angle_site_symmetry_1
 _geom_angle_site_symmetry_3
 _geom_angle_publ_flag
C1 O1 C12 116.74(15) . . ?
C3 N1 C2 119.15(16) . . ?
C5 N2 C1 134.93(15) . . ?
C5 N2 C4 104.33(14) . . ?
C1 N2 C4 120.69(14) . . ?
C4 N3 N4 106.14(16) . . ?
C5 N4 N3 109.87(15) . . ?
C9 N5 C8 116.37(18) . . ?
O1 C1 C2 128.69(16) . . ?
O1 C1 N2 114.09(14) . . ?
C2 C1 N2 117.22(16) . . ?
N1 C2 C1 123.23(17) . . ?
N1 C2 H2 118.4 . . ?
C1 C2 H2 118.4 . . ?
N1 C3 C4 122.18(17) . . ?
N1 C3 C11 118.71(18) . . ?
C4 C3 C11 119.11(19) . . ?
N3 C4 N2 110.83(16) . . ?
N3 C4 C3 131.67(18) . . ?
N2 C4 C3 117.49(16) . . ?
N4 C5 N2 108.83(16) . . ?
N4 C5 C6 121.22(16) . . ?
N2 C5 C6 129.95(16) . . ?
C7 C6 C10 118.43(17) . . ?
C7 C6 C5 117.51(17) . . ?
C10 C6 C5 123.82(16) . . ?
C8 C7 C6 118.89(18) . . ?
C8 C7 H7 120.6 . . ?
C6 C7 H7 120.6 . . ?
N5 C8 C7 123.91(18) . . ?
N5 C8 H8 118.0 . . ?
C7 C8 H8 118.0 . . ?
N5 C9 C10 124.3(2) . . ?
N5 C9 H9 117.8 . . ?
C10 C9 H9 117.8 . . ?
C9 C10 C6 118.07(18) . . ?
C9 C10 H10 121.0 . . ?
C6 C10 H10 121.0 . . ?
F1 C11 F2 108.2(2) . . ?
F1 C11 F3 107.6(2) . . ?
F2 C11 F3 105.4(2) . . ?
F1 C11 C3 111.9(2) . . ?
F2 C11 C3 111.93(19) . . ?
F3 C11 C3 111.57(18) . . ?
O1 C12 C13 107.22(18) . . ?
O1 C12 H12A 110.3 . . ?
C13 C12 H12A 110.3 . . ?
O1 C12 H12B 110.3 . . ?
C13 C12 H12B 110.3 . . ?
H12A C12 H12B 108.5 . . ?
C14 C13 C12 112.74(18) . . ?
C14 C13 H13A 109.0 . . ?
C12 C13 H13A 109.0 . . ?
C14 C13 H13B 109.0 . . ?
C12 C13 H13B 109.0 . . ?
H13A C13 H13B 107.8 . . ?
C15 C14 C19 119.4(2) . . ?
C15 C14 C13 121.4(2) . . ?
C19 C14 C13 119.2(2) . . ?
C14 C15 C16 120.1(3) . . ?
C14 C15 H15 120.0 . . ?
C16 C15 H15 120.0 . . ?
C17 C16 C15 120.2(4) . . ?
C17 C16 H16 119.9 . . ?
C15 C16 H16 119.9 . . ?
C16 C17 C18 120.1(3) . . ?
C16 C17 H17 120.0 . . ?
C18 C17 H17 120.0 . . ?
C19 C18 C17 120.1(3) . . ?
C19 C18 H18 119.9 . . ?
C17 C18 H18 119.9 . . ?
C18 C19 C14 120.2(3) . . ?
C18 C19 H19 119.9 . . ?
C14 C19 H19 119.9 . . ?
 
loop_
 _geom_torsion_atom_site_label_1
 _geom_torsion_atom_site_label_2
 _geom_torsion_atom_site_label_3
 _geom_torsion_atom_site_label_4
 _geom_torsion
 _geom_torsion_site_symmetry_1
 _geom_torsion_site_symmetry_2
 _geom_torsion_site_symmetry_3
 _geom_torsion_site_symmetry_4
 _geom_torsion_publ_flag
C4 N3 N4 C5 -0.2(2) . . . . ?
C12 O1 C1 C2 -12.3(3) . . . . ?
C12 O1 C1 N2 168.49(15) . . . . ?
C5 N2 C1 O1 -0.1(3) . . . . ?
C4 N2 C1 O1 176.72(15) . . . . ?
C5 N2 C1 C2 -179.40(18) . . . . ?
C4 N2 C1 C2 -2.6(2) . . . . ?
C3 N1 C2 C1 -0.1(3) . . . . ?
O1 C1 C2 N1 -177.43(18) . . . . ?
N2 C1 C2 N1 1.7(3) . . . . ?
C2 N1 C3 C4 -0.7(3) . . . . ?
C2 N1 C3 C11 179.75(18) . . . . ?
N4 N3 C4 N2 -0.2(2) . . . . ?
N4 N3 C4 C3 -179.02(19) . . . . ?
C5 N2 C4 N3 0.5(2) . . . . ?
C1 N2 C4 N3 -177.17(15) . . . . ?
C5 N2 C4 C3 179.53(16) . . . . ?
C1 N2 C4 C3 1.8(2) . . . . ?
N1 C3 C4 N3 178.6(2) . . . . ?
C11 C3 C4 N3 -1.8(3) . . . . ?
N1 C3 C4 N2 -0.2(3) . . . . ?
C11 C3 C4 N2 179.40(17) . . . . ?
N3 N4 C5 N2 0.6(2) . . . . ?
N3 N4 C5 C6 -178.92(16) . . . . ?
C1 N2 C5 N4 176.54(18) . . . . ?
C4 N2 C5 N4 -0.65(19) . . . . ?
C1 N2 C5 C6 -4.0(3) . . . . ?
C4 N2 C5 C6 178.79(18) . . . . ?
N4 C5 C6 C7 -45.9(2) . . . . ?
N2 C5 C6 C7 134.7(2) . . . . ?
N4 C5 C6 C10 128.3(2) . . . . ?
N2 C5 C6 C10 -51.1(3) . . . . ?
C10 C6 C7 C8 -0.5(3) . . . . ?
C5 C6 C7 C8 173.97(18) . . . . ?
C9 N5 C8 C7 0.2(3) . . . . ?
C6 C7 C8 N5 0.6(3) . . . . ?
C8 N5 C9 C10 -1.1(4) . . . . ?
N5 C9 C10 C6 1.1(4) . . . . ?
C7 C6 C10 C9 -0.3(3) . . . . ?
C5 C6 C10 C9 -174.4(2) . . . . ?
N1 C3 C11 F1 -4.5(3) . . . . ?
C4 C3 C11 F1 175.9(2) . . . . ?
N1 C3 C11 F2 117.1(2) . . . . ?
C4 C3 C11 F2 -62.5(3) . . . . ?
N1 C3 C11 F3 -125.1(2) . . . . ?
C4 C3 C11 F3 55.3(3) . . . . ?
C1 O1 C12 C13 -179.88(16) . . . . ?
O1 C12 C13 C14 -74.5(2) . . . . ?
C12 C13 C14 C15 90.9(3) . . . . ?
C12 C13 C14 C19 -86.9(2) . . . . ?
C19 C14 C15 C16 0.2(3) . . . . ?
C13 C14 C15 C16 -177.6(2) . . . . ?
C14 C15 C16 C17 -0.9(4) . . . . ?
C15 C16 C17 C18 0.9(5) . . . . ?
C16 C17 C18 C19 -0.3(5) . . . . ?
C17 C18 C19 C14 -0.3(4) . . . . ?
C15 C14 C19 C18 0.4(4) . . . . ?
C13 C14 C19 C18 178.3(2) . . . . ?
 
_refine_diff_density_max    0.329
_refine_diff_density_min   -0.207
_refine_diff_density_rms    0.043

_shelx_res_file
;
TITL mht17pt3_s1598_hP_a.res in P3(1)
    mht17pt3_s1598_hP.res
    created by SHELXL-2017/1 at 18:40:23 on 23-Oct-2017
REM Old TITL mht17pt3_s1598_hP in P3(1)
REM SHELXT solution in P3(1)
REM R1 0.140,  Rweak 0.048,  Alpha 0.007,  Orientation as input
REM Flack x = -9.990 ( 9.990 ) from Parsons' quotients
REM Formula found by SHELXT:  C19 N5 F4
CELL  0.71073  10.8463  10.8463  12.9970   90.000   90.000  120.000
ZERR    3.000   0.0018   0.0018   0.0031    0.000    0.000    0.000
LATT -1
SYMM  -y, +x-y, 2/3+z
SYMM  -x+y, -x, 1/3+z
REM enantiomorph space group. SYMM cards changed!
REM SYMM -Y, X-Y, 1/3+Z
REM SYMM -X+Y, -X, 2/3+Z
SFAC C H N O F
UNIT 57 42 15 3 9
TEMP -173.000
SIZE 0.144 0.165 0.192
L.S. 10
TEMP -173
LIST 4
ACTA
BOND $H
CONF
HTAB
FMAP 2
PLAN 20
WGHT    0.040000    0.100000
FVAR       1.04756
F1    5    0.241317   -0.012277    0.672096    11.00000    0.05285    0.03850 =
         0.08547    0.03483    0.00732   -0.00011
F2    5    0.454069    0.025214    0.649755    11.00000    0.09145    0.05079 =
         0.04942    0.01830    0.01388    0.04927
F3    5    0.415807    0.145071    0.762118    11.00000    0.08969    0.04533 =
         0.02800    0.01271    0.00894    0.02962
O1    4    0.483431    0.510520    0.377767    11.00000    0.02391    0.02216 =
         0.02171   -0.00162   -0.00464    0.01096
N1    3    0.297796    0.182261    0.529392    11.00000    0.02295    0.02208 =
         0.03032   -0.00218    0.00369    0.00535
N2    3    0.562724    0.420340    0.502444    11.00000    0.01606    0.01630 =
         0.01786   -0.00148    0.00001    0.00595
N3    3    0.661468    0.359369    0.629020    11.00000    0.02846    0.02822 =
         0.02772    0.00165   -0.00308    0.01499
N4    3    0.761989    0.486699    0.586977    11.00000    0.02193    0.02791 =
         0.02905   -0.00197   -0.00435    0.01187
N5    3    0.978121    0.908024    0.348600    11.00000    0.03130    0.02607 =
         0.03945   -0.00191    0.01237    0.00357
C1    1    0.450125    0.404078    0.442166    11.00000    0.01791    0.01981 =
         0.01929   -0.00492   -0.00187    0.00949
C2    1    0.320293    0.282983    0.457121    11.00000    0.01845    0.02400 =
         0.02654   -0.00504   -0.00247    0.00730
AFIX  43
H2    2    0.242533    0.268737    0.415147    11.00000   -1.20000
AFIX   0
C3    1    0.403504    0.200077    0.587499    11.00000    0.02812    0.01952 =
         0.02380    0.00221    0.00492    0.00835
C4    1    0.542286    0.320337    0.577576    11.00000    0.02563    0.02147 =
         0.01995   -0.00005   -0.00001    0.01244
C5    1    0.704684    0.523197    0.511610    11.00000    0.01526    0.01996 =
         0.02251   -0.00468   -0.00210    0.00606
C6    1    0.789878    0.654485    0.451909    11.00000    0.01571    0.02036 =
         0.02501   -0.00269    0.00140    0.00620
C7    1    0.878342    0.778180    0.506307    11.00000    0.01982    0.02293 =
         0.02713   -0.00568   -0.00041    0.00842
AFIX  43
H7    2    0.876152    0.778929    0.579368    11.00000   -1.20000
AFIX   0
C8    1    0.969990    0.900661    0.452026    11.00000    0.02252    0.02273 =
         0.03836   -0.00845    0.00211    0.00552
AFIX  43
H8    2    1.030535    0.984201    0.490131    11.00000   -1.20000
AFIX   0
C9    1    0.890536    0.787730    0.297230    11.00000    0.03755    0.02930 =
         0.03115   -0.00150    0.01224    0.00439
AFIX  43
H9    2    0.893273    0.790864    0.224177    11.00000   -1.20000
AFIX   0
C10   1    0.796215    0.659043    0.344032    11.00000    0.03015    0.02170 =
         0.02546   -0.00431    0.00540    0.00483
AFIX  43
H10   2    0.737819    0.576681    0.304118    11.00000   -1.20000
AFIX   0
C11   1    0.377199    0.087941    0.667744    11.00000    0.04792    0.02462 =
         0.03528    0.00771    0.00706    0.01355
C12   1    0.378365    0.488069    0.298672    11.00000    0.03828    0.02921 =
         0.02870   -0.00775   -0.01726    0.01917
AFIX  23
H12A  2    0.287692    0.468654    0.330918    11.00000   -1.20000
H12B  2    0.359674    0.405873    0.254813    11.00000   -1.20000
AFIX   0
C13   1    0.439754    0.623332    0.234485    11.00000    0.05716    0.04018 =
         0.02034   -0.00248   -0.00670    0.03125
AFIX  23
H13A  2    0.539596    0.653431    0.216548    11.00000   -1.20000
H13B  2    0.385183    0.602802    0.169563    11.00000   -1.20000
AFIX   0
C14   1    0.435772    0.743851    0.289582    11.00000    0.03857    0.02944 =
         0.02111    0.00653    0.00250    0.02023
C15   1    0.548928    0.840106    0.349541    11.00000    0.04940    0.03317 =
         0.03120    0.00380   -0.00175    0.01306
AFIX  43
H15   2    0.632608    0.833119    0.354524    11.00000   -1.20000
AFIX   0
C16   1    0.539988    0.947402    0.402655    11.00000    0.12818    0.02802 =
         0.03264   -0.00021    0.00254    0.02428
AFIX  43
H16   2    0.617146    1.012423    0.444442    11.00000   -1.20000
AFIX   0
C17   1    0.420689    0.959076    0.394679    11.00000    0.18019    0.05969 =
         0.04770    0.02407    0.04709    0.08804
AFIX  43
H17   2    0.415588    1.033028    0.430079    11.00000   -1.20000
AFIX   0
C18   1    0.306912    0.863050    0.334930    11.00000    0.10713    0.08483 =
         0.07595    0.04905    0.04876    0.08260
AFIX  43
H18   2    0.223810    0.871039    0.329788    11.00000   -1.20000
AFIX   0
C19   1    0.314311    0.755490    0.282735    11.00000    0.04581    0.05453 =
         0.05222    0.02544    0.00969    0.03357
AFIX  43
H19   2    0.236052    0.689588    0.242182    11.00000   -1.20000
AFIX   0
HKLF 4




REM  mht17pt3_s1598_hP_a.res in P3(1)
REM R1 =  0.0390 for    5006 Fo > 4sig(Fo)  and  0.0427 for all    5316 data
REM    253 parameters refined using      1 restraints

END

WGHT      0.0618      0.1955

REM Instructions for potential hydrogen bonds
EQIV $1 -y, x-y, z-1/3
HTAB C2 F1_$1
EQIV $2 x+1, y+1, z
HTAB C8 N1_$2
EQIV $3 -y+1, x-y, z-1/3
HTAB C10 N3_$3
HTAB C12 N4_$3

REM Highest difference peak  0.329,  deepest hole -0.207,  1-sigma level  0.043
Q1    1   0.7469  0.5927  0.4852  11.00000  0.05    0.33
Q2    1   0.9117  0.8382  0.4744  11.00000  0.05    0.27
Q3    1   0.8520  0.7193  0.3228  11.00000  0.05    0.26
Q4    1   0.8541  0.7068  0.4840  11.00000  0.05    0.25
Q5    1   0.3923  0.1469  0.6262  11.00000  0.05    0.25
Q6    1   0.5498  0.3668  0.5391  11.00000  0.05    0.25
Q7    1   0.6287  0.4752  0.4983  11.00000  0.05    0.25
Q8    1   0.3916  0.3442  0.4575  11.00000  0.05    0.24
Q9    1   0.5164  0.7804  0.3104  11.00000  0.05    0.23
Q10   1   0.4655  0.2615  0.5749  11.00000  0.05    0.22
Q11   1   0.9604  0.8208  0.3330  11.00000  0.05    0.22
Q12   1   0.4356  0.6880  0.2707  11.00000  0.05    0.22
Q13   1   0.8126  0.7232  0.4799  11.00000  0.05    0.22
Q14   1   0.3641  0.7408  0.3061  11.00000  0.05    0.21
Q15   1   0.3346  0.1133  0.7383  11.00000  0.05    0.21
Q16   1   0.5547  0.9068  0.3578  11.00000  0.05    0.20
Q17   1   0.5043  0.4111  0.4695  11.00000  0.05    0.20
Q18   1   0.8225  0.6610  0.3994  11.00000  0.05    0.20
Q19   1   0.6026  0.3421  0.6073  11.00000  0.05    0.20
Q20   1   0.3255  0.2410  0.4984  11.00000  0.05    0.19
;
_shelx_res_checksum   65182

_shelx_hkl_file
;
   0   0  -1    2.26    0.29
   0   0  -1    2.91    0.22
   0   0  -1    0.95    0.22
   0   0  -1    3.71    0.29
   0   0  -1    1.97    0.22
   0   0  -1    2.40    0.29
   0   0   1    0.00    0.07
   0   0   1    0.07    0.07
   0   0   1    0.00    0.07
   0   0   1    0.00    0.07
   0   0   1    0.00    0.07
   0   0   1    0.00    0.07
   0   0  -2    6.19    0.66
   0   0  -2    7.21    0.66
   0   0  -2    5.90    0.51
   0   0  -2    5.83    0.66
   0   0   2    6.55    0.58
   0   0   2    6.04    0.51
   0   0  -3 9117.36   47.55
   0   0  -3 8688.33   44.42
   0   0  -3 9115.25   35.53
   0   0  -4    3.28    0.80
   0   0  -4    4.15    0.80
   0   0  -4    5.32    0.66
   0   0   4    4.00    0.80
   0   0   4    4.88    0.66
   0   0  -5    1.89    0.80
   0   0  -5    1.38    0.66
   0   0  -5    1.09    0.51
   0   0   5    1.24    0.66
   0   0   5    2.04    0.58
   0   0  -6 1672.19   12.01
   0   0  -6 1624.64   10.85
   0   0  -6 1688.87    8.52
   0   0   6 1636.22    8.37
   0   0   6 1725.78    9.76
   0   0  -7    2.69    1.02
   0   0  -7    3.42    1.02
   0   0  -7    3.42    0.73
   0   0   7    3.06    0.66
   0   0   7    3.35    0.80
   0   0  -9  214.00    5.61
   0   0  -9  203.66    5.02
   0   0   9  214.59    3.79
   0   0   9  219.90    4.44
   0   0 -11    6.55    1.82
   0   0 -12  265.19    7.57
   0   0 -12  257.04    6.70
   0   0  12  274.66    5.83
   0   0 -13    1.53    1.97
   0   0 -13    0.07    1.53
   0   0 -14    2.04    2.18
   0   0 -14    1.75    1.97
   0   0 -15  280.92    9.10
   0   0 -15  285.87    8.23
   0   0  15  271.38    8.88
   0   0 -16   -0.95    2.40
   0   0 -16    1.46    2.91
   0   0  16    2.11    2.33
   0   0 -17    2.69    2.84
   0   0  17    1.38    2.55
   0   0 -18  284.34   16.02
   0   0  18  255.22   11.50
   1   0  17   96.12    6.63
  -1   0 -17  105.80    7.14
   1   0  16   72.81    5.61
  -1   0 -16   65.17    5.68
  -1   0 -16   69.98    5.17
   1   0  15   34.73    4.44
  -1   0 -15   25.34    3.86
  -1   0 -15   27.74    3.57
  -1   0 -14  246.99    8.30
  -1   0 -14  247.06    7.50
  -1   0 -13   96.33    5.39
  -1   0 -13  101.72    4.95
   1   0  12   58.18    3.13
  -1   0 -12   50.17    4.00
  -1   0 -12   50.53    3.57
   1   0  11  157.50    4.51
  -1   0 -11  141.55    5.39
  -1   0 -11  140.17    4.88
   1   0  10   82.14    3.20
  -1   0 -10   74.78    3.93
  -1   0 -10   81.63    3.71
   1   0   9  246.48    4.95
  -1   0  -9  232.57    5.90
  -1   0  -9  224.92    5.39
   1   0   8 1532.46   11.36
  -1   0  -8 1416.68   13.25
  -1   0  -8 1439.04   12.38
   1   0   7  352.35    5.17
  -1   0  -7  325.99    5.97
  -1   0  -7  325.92    5.61
   1   0   6  368.15    4.95
  -1   0  -6  341.79    5.68
  -1   0  -6  341.94    5.32
   1   0   5  134.93    2.84
  -1   0  -5  131.72    3.28
  -1   0  -5  132.30    3.13
   1   0   4 2744.54   20.24
  -1   0  -4 2673.47   18.28
  -1   0  -4 2629.56   20.39
   1   0   3 5429.87   34.51
  -1   0  -3 5255.26   34.51
  -1   0  -3 5337.47   37.21
   1   0   2 3454.99   24.03
  -1   0  -2 3358.29   22.94
  -1   0  -2 3305.86   23.66
  -1   0  -2 3817.97   16.75
  -1   0  -2 3443.48   15.73
   1   0   1 2289.08   16.46
   1   0   1 2319.95   10.27
   1   0   1 2241.39   13.91
   1   0   1 2465.29   13.91
  -1   0  -1 2289.81   10.19
  -1   0  -1 2248.67   15.73
  -1   0  -1 2226.02   13.54
  -1   0  -1 2282.74   10.12
  -1   0  -1 2399.90   14.20
  -1   0  -1 2500.97   14.49
   1   0   0 2278.52   14.42
   1   0   0 2362.40   13.91
   1   0   0 2338.81   11.72
   1   0   0 2115.78   11.50
  -1   0   0 2241.39   14.49
  -1   0   0 2359.93   11.94
  -1   0   0 2036.19   11.65
   1   0  -1  315.07    2.40
   1   0  -1  281.94    1.75
   1   0  -1  281.28    2.62
   1   0  -1  274.51    2.48
  -1   0   1  283.83    1.97
  -1   0   1  276.84    1.75
   1   0  -2 1884.88   11.87
   1   0  -2 2098.52   17.55
   1   0  -2 2033.28   14.85
  -1   0   2 2197.70   12.31
   1   0  -3  222.38    2.99
   1   0  -3  239.34    2.99
   1   0  -3  226.82    3.06
   1   0  -3  235.77    3.20
   1   0  -4 1065.64    7.50
   1   0  -4 1102.05    7.14
   1   0  -4 1070.60    7.06
   1   0  -4 1147.93    7.79
   1   0  -5  520.63    5.97
   1   0  -5  561.26    5.68
   1   0  -5  540.72    5.46
   1   0  -5  598.76    6.26
   1   0  -6  956.28    8.88
   1   0  -6 1026.62    8.45
   1   0  -6 1020.94    7.94
   1   0  -6 1075.11    9.17
  -1   0   6 1028.07    8.96
  -1   0   6 1037.39    7.35
   1   0  -7   17.04    1.89
   1   0  -7   18.79    1.67
   1   0  -7   17.84    1.53
   1   0  -7   18.57    1.82
  -1   0   7   19.08    1.46
  -1   0   7   18.35    1.60
  -1   0   7   19.81    1.31
   1   0  -8  236.87    5.39
   1   0  -8  248.37    5.02
   1   0  -8  250.63    4.51
   1   0  -8  249.68    5.32
  -1   0   8  240.73    4.44
  -1   0   8  245.82    5.17
  -1   0   8  254.71    4.30
   1   0  -9  233.52    5.75
   1   0  -9  244.66    5.39
   1   0  -9  255.07    4.81
  -1   0   9  230.60    4.51
  -1   0   9  243.27    5.53
  -1   0   9  245.82    4.51
   1   0 -10  339.10    7.35
   1   0 -10  365.17    6.84
   1   0 -10  370.12    5.97
  -1   0  10  364.80    5.90
  -1   0  10  365.60    7.14
  -1   0  10  383.08    5.97
   1   0 -11   27.38    2.99
   1   0 -11   32.91    2.84
  -1   0  11   36.19    2.33
  -1   0  11   34.51    2.26
   1   0 -12  386.28    8.88
   1   0 -12  388.10    8.01
   1   0 -13  107.11    5.46
   1   0 -13  110.24    4.95
   1   0 -14  230.53    7.94
   1   0 -14  245.17    7.28
   1   0 -15  201.84    7.94
   1   0 -15  203.30    7.06
  -1   0  15  197.98    7.65
   1   0 -16   10.27    3.13
  -1   0  16   14.85    3.28
   1   0 -17    3.20    3.06
  -1   0  17    4.73    2.84
   1   0 -18    6.63    3.35
  -1   0  18    2.99    2.84
   2   0  18   48.28    4.95
   2   0  17   46.31    5.53
  -2   0 -17   49.81    5.90
  -2   0 -17   44.20    4.81
   2   0  16    0.73    2.33
  -2   0 -16    3.28    2.77
  -2   0 -16    4.81    2.55
   2   0  15   48.35    4.73
  -2   0 -15   58.47    5.24
  -2   0 -15   56.14    4.59
   2   0  14    2.91    2.04
  -2   0 -14    2.48    2.26
  -2   0 -14    3.93    2.11
   2   0  13  174.17    5.46
  -2   0 -13  163.40    6.63
  -2   0 -13  174.32    6.26
   2   0  12  117.81    4.44
  -2   0 -12  104.34    5.24
  -2   0 -12  107.55    4.88
   2   0  11    8.08    1.67
  -2   0 -11    6.84    2.04
  -2   0 -11    7.65    1.97
   2   0  10   22.28    2.18
  -2   0 -10   22.79    2.77
  -2   0 -10   24.03    2.48
   2   0   9  152.18    4.22
  -2   0  -9  143.30    4.88
  -2   0  -9  132.81    4.44
   2   0   8  348.93    5.90
  -2   0  -8  328.83    6.63
  -2   0  -8  329.71    6.33
   2   0   7  457.64    6.41
  -2   0  -7  430.26    6.99
  -2   0  -7  418.90    6.70
   2   0   6  369.75    5.46
  -2   0  -6  369.83    5.53
  -2   0  -6  349.88    5.83
   2   0   5 1275.28    9.39
  -2   0  -5 1249.87    9.47
  -2   0  -5 1222.71    9.83
   2   0   4 2386.36   18.13
  -2   0  -4 2317.84   21.70
  -2   0  -4 2263.45   18.06
  -2   0  -4 2605.46   11.80
  -2   0  -4 2508.25   11.65
   2   0   3 7178.30   47.33
  -2   0  -3 7079.27   47.04
  -2   0  -3 6897.96   43.18
  -2   0  -3 7938.71   36.63
  -2   0  -3 7441.82   34.73
   2   0   1 9951.67   40.63
  -2   0  -1 9609.66   49.59
  -2   0  -1 9693.40   41.72
  -2   0  -1    0.00    0.07
   2   0   0 5383.78   34.37
   2   0   0 5676.28   17.04
   2   0   0 5461.18   31.09
   2   0   0 5905.13   26.80
   2   0   0 5345.55   26.29
  -2   0   0 5545.65   32.33
   2   0  -1 1519.35    7.43
   2   0  -1 1552.48    6.55
  -2   0   1 1607.97   10.56
   2   0  -2 4993.35   22.35
   2   0  -2 4900.00   32.33
   2   0  -2 4797.62   34.08
  -2   0   2 5259.34   26.65
   2   0  -3 1199.11    6.48
   2   0  -3 1319.26    7.57
   2   0  -3 1242.37    8.16
  -2   0   3 1311.69    7.50
  -2   0   3 1333.68    5.83
   2   0  -4  141.04    2.77
   2   0  -4  153.57    2.91
   2   0  -4  137.62    3.13
   2   0  -4  144.17    3.13
  -2   0   4  158.01    2.91
  -2   0   4  155.82    2.11
   2   0  -5  118.62    2.91
   2   0  -5  130.63    2.99
   2   0  -5  122.47    3.13
   2   0  -5  126.33    3.20
  -2   0   5  135.22    2.04
   2   0  -6  155.31    3.71
   2   0  -6  167.55    3.57
   2   0  -6  164.93    3.79
   2   0  -6  169.15    3.93
  -2   0   6  139.44    2.69
   2   0  -7  492.45    6.92
   2   0  -7  536.65    6.77
   2   0  -7  516.99    6.84
   2   0  -7  567.88    7.57
  -2   0   7  514.44    6.77
  -2   0   7  495.29    4.88
   2   0  -8  173.15    4.66
   2   0  -8  182.26    4.37
   2   0  -8  174.17    4.30
   2   0  -8  184.51    4.73
  -2   0   8  175.34    4.22
  -2   0   8  171.19    4.51
  -2   0   8  176.65    3.64
   2   0  -9   57.16    3.20
   2   0  -9   59.05    2.99
   2   0  -9   67.14    3.06
   2   0  -9   65.97    3.35
  -2   0   9   58.11    2.77
  -2   0   9   58.62    2.99
  -2   0   9   65.02    2.48
   2   0 -10  197.33    5.68
   2   0 -10  216.04    5.39
   2   0 -10  221.07    5.24
   2   0 -10  217.13    5.90
  -2   0  10  212.40    5.10
  -2   0  10  216.70    5.68
  -2   0  10  225.94    4.59
   2   0 -11  243.57    6.70
   2   0 -11  254.56    6.19
   2   0 -11  255.51    5.83
   2   0 -11  249.90    6.70
  -2   0  11  248.66    5.68
  -2   0  11  257.62    6.63
  -2   0  11  251.65    5.17
   2   0 -12  280.34    7.65
   2   0 -12  291.84    6.99
  -2   0  12  269.85    6.19
  -2   0  12  285.94    7.28
   2   0 -13  115.70    5.68
   2   0 -13  131.50    5.24
   2   0 -14   30.51    3.79
   2   0 -14   29.64    3.42
   2   0 -15    5.90    2.62
  -2   0  15    3.28    2.26
   2   0 -16   31.38    4.30
  -2   0  16   31.53    4.15
   2   0 -17    5.53    3.06
  -2   0  17    8.08    2.99
   2   0 -18    9.47    3.57
  -2   0  18    9.54    3.28
   3   0  18   12.01    3.28
   3   0  17   22.86    4.22
  -3   0 -17   17.55    3.93
  -3   0 -17   23.30    3.93
   3   0  16   10.27    3.20
  -3   0 -16   10.56    3.28
  -3   0 -16   14.78    3.28
   3   0  15   96.41    5.97
  -3   0 -15   86.50    5.97
  -3   0 -15   87.81    5.53
   3   0  14   23.88    3.64
  -3   0 -14   24.76    3.71
  -3   0 -14   21.19    3.28
   3   0  13  224.42    6.41
   3   0  13  205.85    7.35
  -3   0 -13  218.37    7.65
  -3   0 -13  217.64    7.21
   3   0  12   45.80    3.35
   3   0  12   39.98    3.64
  -3   0 -12   38.08    3.79
  -3   0 -12   47.33    3.79
   3   0  11  114.17    4.44
  -3   0 -11  108.28    5.02
  -3   0 -11  109.22    4.88
   3   0  10  112.21    4.15
  -3   0 -10  107.18    4.66
  -3   0 -10  107.04    4.51
   3   0   8  126.41    4.00
  -3   0  -8  136.82    4.30
  -3   0  -8  125.31    4.37
   3   0   7  804.09    9.17
  -3   0  -7  803.15    9.32
  -3   0  -7  788.15    9.61
   3   0   6 3750.76   23.23
  -3   0  -6 3730.01   27.09
  -3   0  -6 3672.41   23.74
   3   0   5 3123.39   16.38
  -3   0  -5 3161.84   16.82
  -3   0  -5 3161.33   27.01
  -3   0  -5 3477.20   18.57
  -3   0  -5 3283.58   17.77
   3   0   4  544.44    6.63
  -3   0  -4  561.62    6.84
  -3   0  -4  534.31    6.12
  -3   0  -4  610.26    5.02
  -3   0  -4  581.13    4.95
   3   0   3  751.89    7.35
   3   0   3  808.61    6.33
  -3   0  -3  764.41    7.50
  -3   0  -3  734.99    6.33
  -3   0  -3  809.77    5.97
  -3   0  -3  788.07    5.90
   3   0   2 2224.56   21.92
   3   0   2 2185.75   15.22
   3   0   2 2256.02   12.96
   3   0   2 2379.95   12.09
   3   0   2 2073.26   16.53
  -3   0  -2 2283.04   12.60
  -3   0  -2 2146.58   11.87
  -3   0  -2 2152.26   12.60
  -3   0  -2 2325.49   17.84
  -3   0  -2 2261.48   11.80
   3   0   1 1959.30   10.63
   3   0   1 2066.92   11.58
   3   0   1 2286.53   12.23
   3   0   1 1955.08   12.74
  -3   0  -1 2026.36   11.07
  -3   0  -1 2013.26   13.62
  -3   0  -1 2078.21   10.78
  -3   0  -1 2264.39   15.00
   3   0   0  222.59    3.64
   3   0   0  233.44    3.57
   3   0   0  230.68    2.62
   3   0   0  202.57    2.40
  -3   0   0  227.11    3.57
   3   0  -1  511.45    5.39
   3   0  -1  508.03    3.57
   3   0  -1  519.61    5.53
  -3   0   1  496.45    4.95
   3   0  -2  543.27    3.20
   3   0  -2  528.85    5.97
   3   0  -2  496.89    5.68
  -3   0   2  530.38    4.88
   3   0  -3  503.15    4.08
   3   0  -3  534.61    6.12
  -3   0   3  524.63    4.66
   3   0  -4  652.13    5.53
   3   0  -4  668.15    7.43
   3   0  -4  677.47    7.28
  -3   0   4  679.58    5.17
   3   0  -5 1342.20    9.03
   3   0  -5 1391.05   11.21
   3   0  -5 1428.41   11.14
  -3   0   5 1463.36   10.12
  -3   0   5 1462.34    7.43
   3   0  -6  390.43    5.53
   3   0  -6  428.08    5.90
   3   0  -6  420.21    6.48
  -3   0   6  422.69    5.83
  -3   0   6  434.78    4.15
   3   0  -7  116.58    3.50
   3   0  -7  120.95    3.50
   3   0  -7  109.44    3.71
   3   0  -7  119.20    3.86
  -3   0   7  105.65    3.57
  -3   0   7  102.89    2.84
  -3   0   7  118.83    3.42
  -3   0   7  122.77    2.33
   3   0  -8  388.83    6.63
   3   0  -8  417.52    6.55
   3   0  -8  403.32    6.99
   3   0  -8  419.56    7.28
  -3   0   8  391.96    6.84
  -3   0   8  392.03    5.32
  -3   0   8  422.33    6.55
  -3   0   8  427.50    4.37
   3   0  -9  369.75    6.99
   3   0  -9  405.36    6.92
   3   0  -9  397.64    7.21
   3   0  -9  415.85    7.72
  -3   0   9  368.01    6.92
  -3   0   9  366.77    5.17
  -3   0   9  400.92    6.77
   3   0 -10  436.38    8.08
   3   0 -10  466.60    7.86
   3   0 -10  468.27    8.16
   3   0 -10  498.13    8.88
  -3   0  10  434.70    7.79
  -3   0  10  456.18    8.37
  -3   0  10  459.68    6.63
   3   0 -11  504.90    9.25
   3   0 -11  527.47    8.74
   3   0 -11  507.74    8.81
   3   0 -11  529.15    9.61
  -3   0  11  484.73    8.52
  -3   0  11  509.63    9.32
   3   0 -12  143.45    5.68
   3   0 -12  149.63    5.24
   3   0 -12  143.37    5.68
  -3   0  12  141.77    5.02
  -3   0  12  137.33    5.39
   3   0 -13   15.07    2.84
   3   0 -13   16.89    2.62
   3   0 -13   16.60    2.91
  -3   0  13   16.97    2.48
  -3   0  13   18.71    2.84
   3   0 -14    2.55    2.18
  -3   0  14    0.80    1.82
   3   0 -15    6.92    2.77
  -3   0  15    3.28    2.04
   3   0 -16    8.74    2.99
  -3   0  16    9.83    2.84
   3   0 -17   49.66    5.39
  -3   0  17   46.60    5.02
   3   0 -18   34.44    4.73
  -3   0  18   27.96    4.37
   4   0  17    2.62    2.84
  -4   0 -17    2.04    3.42
  -4   0 -17    1.53    2.40
   4   0  16   10.19    3.20
  -4   0 -16   11.65    3.42
  -4   0 -16   10.19    3.06
   4   0  15   15.66    3.20
  -4   0 -15   13.40    3.20
  -4   0 -15   12.31    2.99
   4   0  14    7.50    2.69
  -4   0 -14    6.04    2.62
  -4   0 -14    5.10    2.26
   4   0  13    0.87    1.60
   4   0  13    0.29    1.82
  -4   0 -13    1.24    1.97
  -4   0 -13    2.69    2.11
   4   0  12   18.20    2.62
   4   0  12   21.19    3.06
  -4   0 -12   20.24    3.13
  -4   0 -12   18.35    2.84
   4   0  11    9.10    1.97
   4   0  11    9.32    2.18
  -4   0 -11    8.45    2.33
  -4   0 -11    9.68    2.26
   4   0  10  201.19    5.75
   4   0  10  190.70    6.04
  -4   0 -10  198.78    6.26
  -4   0 -10  191.36    6.12
   4   0   9  118.91    4.44
  -4   0  -9  123.13    4.66
  -4   0  -9  112.72    4.59
   4   0   8  278.88    6.19
  -4   0  -8  288.57    4.37
  -4   0  -8  293.23    6.48
  -4   0  -8  278.44    6.41
   4   0   7  315.72    6.33
  -4   0  -7  290.09    4.51
  -4   0  -7  322.57    6.55
  -4   0  -7  307.35    6.26
   4   0   6  875.74    9.98
  -4   0  -6  872.69   10.19
  -4   0  -6  835.04    9.39
  -4   0  -6  965.82    6.55
  -4   0  -6  912.73    6.41
   4   0   5 1471.81   12.45
   4   0   5 1405.33   11.14
  -4   0  -5 1464.38   12.60
  -4   0  -5 1451.27   11.36
  -4   0  -5 1623.84    9.39
  -4   0  -5 1592.68    9.32
   4   0   4  424.95    6.55
   4   0   4  426.77    5.68
   4   0   4  439.58    5.46
  -4   0  -4  441.62    6.77
  -4   0  -4  436.09    5.75
  -4   0  -4  503.08    5.46
  -4   0  -4  454.22    5.17
   4   0   3  424.80    6.33
   4   0   3  432.01    5.10
   4   0   3  427.64    5.17
  -4   0  -3  450.94    4.59
  -4   0  -3  447.01    6.55
  -4   0  -3  430.92    5.10
  -4   0  -3  471.77    5.32
  -4   0  -3  457.06    5.24
   4   0   2  324.90    5.39
   4   0   2  312.52    3.79
   4   0   2  339.83    4.37
   4   0   2  342.30    4.44
   4   0   2  323.88    4.30
  -4   0  -2  338.01    4.37
  -4   0  -2  312.16    5.24
  -4   0  -2  333.64    4.44
   4   0   1  649.36    7.28
   4   0   1  669.31    6.41
   4   0   1  691.89    5.75
   4   0   1  598.46    5.39
  -4   0  -1  674.77    6.48
  -4   0  -1  649.73    7.21
  -4   0  -1  715.62    6.84
  -4   0  -1  694.51    8.30
   4   0   0  439.15    5.90
   4   0   0  447.01    5.61
   4   0   0  479.70    4.15
   4   0   0  403.39    3.86
  -4   0   0  462.16    5.68
  -4   0   0  434.41    5.68
   4   0  -1  652.71    7.06
   4   0  -1  652.49    4.88
   4   0  -1  659.56    7.14
  -4   0   1  665.16    6.70
   4   0  -2  737.32    4.30
   4   0  -2  745.99    8.01
   4   0  -2  719.34    7.79
  -4   0   2  704.56    6.63
   4   0  -3  964.65    5.24
   4   0  -3  977.98    9.54
   4   0  -3  951.83    9.17
  -4   0   3  973.32    7.50
   4   0  -4  153.49    2.69
   4   0  -4  158.95    4.22
   4   0  -4  153.86    4.00
  -4   0   4  155.31    2.99
   4   0  -5   97.94    2.55
   4   0  -5  105.36    3.64
   4   0  -5  100.78    3.50
  -4   0   5  106.67    2.48
   4   0  -6   95.97    2.84
   4   0  -6   94.15    3.64
   4   0  -6  100.34    3.71
  -4   0   6   97.35    3.64
  -4   0   6  102.67    2.40
   4   0  -7  357.81    5.75
   4   0  -7  362.69    6.99
   4   0  -7  387.45    7.06
  -4   0   7  357.23    6.92
  -4   0   7  348.71    5.83
  -4   0   7  391.02    6.26
  -4   0   7  380.38    4.37
   4   0  -8  472.20    7.14
   4   0  -8  477.88    8.23
   4   0  -8  492.23    8.30
  -4   0   8  462.67    8.08
  -4   0   8  442.93    6.55
  -4   0   8  512.32    7.50
  -4   0   8  475.70    4.81
   4   0  -9  255.22    5.83
   4   0  -9  281.87    6.04
   4   0  -9  283.76    6.70
   4   0  -9  284.85    6.77
  -4   0   9  256.16    6.41
  -4   0   9  257.04    5.10
  -4   0   9  280.77    5.97
   4   0 -10   83.59    4.00
   4   0 -10   92.55    4.00
   4   0 -10   94.15    4.44
   4   0 -10   91.09    4.59
  -4   0  10   85.05    4.22
  -4   0  10   81.63    4.88
  -4   0  10   92.26    3.86
   4   0 -11  353.15    7.72
   4   0 -11  400.12    7.79
   4   0 -11  380.82    8.30
   4   0 -11  409.44    8.88
  -4   0  11  368.08    8.08
  -4   0  11  392.25    7.65
   4   0 -12   35.10    3.50
   4   0 -12   42.96    3.42
   4   0 -12   38.45    4.00
  -4   0  12   37.65    3.35
  -4   0  12   37.21    3.42
  -4   0  12   35.90    2.99
   4   0 -13   55.78    4.22
   4   0 -13   59.64    4.66
  -4   0  13   50.97    3.86
  -4   0  13   58.98    4.22
  -4   0  13   55.41    4.81
   4   0 -14  110.82    5.75
   4   0 -14  125.39    6.19
  -4   0  14  115.63    5.68
  -4   0  14  110.31    5.46
   4   0 -15  127.06    6.41
  -4   0  15  127.57    6.19
  -4   0  15  121.38    6.04
   4   0 -16   10.27    3.13
  -4   0  16    8.74    2.77
  -4   0  16    7.94    2.77
   4   0 -17    8.08    4.51
  -4   0  17    7.79    2.91
  -5   0 -17    4.95    2.99
   5   0  16   18.20    3.71
  -5   0 -16   17.55    3.79
  -5   0 -16   16.60    3.57
   5   0  15   44.27    4.88
  -5   0 -15   46.67    5.10
  -5   0 -15   42.60    4.88
   5   0  14    0.44    1.75
   5   0  14    1.38    2.18
  -5   0 -14    2.55    2.26
  -5   0 -14   -2.18    1.89
   5   0  13    0.07    1.60
   5   0  13    1.46    1.97
  -5   0 -13   -0.73    1.82
  -5   0 -13    1.75    1.97
   5   0  12  165.73    6.12
   5   0  12  160.12    6.48
  -5   0 -12  158.88    6.48
  -5   0 -12  157.79    6.55
   5   0  11   50.82    3.79
   5   0  11   51.41    3.93
  -5   0 -11   53.96    4.15
  -5   0 -11   46.53    4.00
   5   0  10  341.06    7.94
   5   0  10  343.18    8.16
  -5   0 -10  323.01    8.01
   5   0   9  639.97   10.27
   5   0   9  628.17   10.19
  -5   0  -9  663.20   10.70
  -5   0  -9  659.27   10.49
   5   0   8  445.63    8.37
   5   0   8  443.81    8.16
  -5   0  -8  452.18    6.41
  -5   0  -8  466.23    8.74
  -5   0  -8  451.38    8.23
   5   0   7  251.79    6.12
   5   0   7  246.99    5.75
  -5   0  -7  234.61    4.73
  -5   0  -7  256.53    6.41
  -5   0  -7  260.31    5.90
  -5   0  -7  291.84    4.00
  -5   0  -7  284.49    4.00
   5   0   6  126.99    4.37
   5   0   6  129.17    4.00
  -5   0  -6  138.06    4.66
  -5   0  -6  134.34    4.08
  -5   0  -6  147.09    3.20
  -5   0  -6  143.59    3.20
   5   0   5  812.54   10.19
   5   0   5  818.00    8.81
   5   0   5  886.30    8.88
   5   0   5  740.89    8.08
  -5   0  -5  838.32   10.49
  -5   0  -5  838.68    8.88
  -5   0  -5 1017.44    8.59
  -5   0  -5  910.18    8.08
   5   0   4  267.59    5.75
   5   0   4  268.61    4.66
   5   0   4  261.91    4.66
  -5   0  -4  274.80    5.90
  -5   0  -4  280.48    4.81
  -5   0  -4  292.21    4.73
   5   0   3   14.49    1.82
   5   0   3   16.75    1.38
   5   0   3   17.48    1.46
   5   0   3   17.84    1.38
  -5   0  -3   15.29    1.46
  -5   0  -3   16.75    1.89
  -5   0  -3   16.24    1.38
   5   0   2 1229.26   11.50
   5   0   2 1336.66    9.83
   5   0   2 1365.13    9.54
   5   0   2 1180.47    8.81
  -5   0  -2 1339.21    9.83
  -5   0  -2 1249.28   11.50
  -5   0  -2 1329.82    9.83
   5   0   1   53.74    2.69
   5   0   1   54.17    2.40
   5   0   1   57.89    1.97
   5   0   1   49.30    1.82
  -5   0  -1   55.41    2.40
  -5   0  -1   50.68    2.55
   5   0   0   77.55    3.06
   5   0   0   81.12    2.40
   5   0   0   85.48    2.99
   5   0   0   89.85    2.04
   5   0   0   77.84    1.89
  -5   0   0   84.61    2.99
  -5   0   0   82.72    2.99
   5   0  -1  318.49    5.68
   5   0  -1  326.06    4.08
   5   0  -1  324.24    5.68
  -5   0   1  328.03    5.75
  -5   0   1  312.01    5.32
   5   0  -2  362.69    3.64
   5   0  -2  373.61    6.33
   5   0  -2  373.98    6.41
  -5   0   2  371.57    6.33
  -5   0   2  376.89    5.61
   5   0  -3   39.39    2.55
   5   0  -3   38.74    2.48
  -5   0   3   44.42    2.62
  -5   0   3   39.54    2.04
   5   0  -4  220.05    2.91
   5   0  -4  222.23    5.39
   5   0  -4  226.31    5.32
  -5   0   4  220.85    5.39
  -5   0   4  222.59    4.15
   5   0  -5  750.72    6.26
   5   0  -5  752.83    9.90
   5   0  -5  764.26    9.68
  -5   0   5  733.24    9.83
  -5   0   5  793.32    7.43
   5   0  -6   30.00    1.82
   5   0  -6   31.16    2.62
   5   0  -6   31.02    2.69
  -5   0   6   27.52    2.62
  -5   0   6   33.49    1.82
   5   0  -7  293.59    5.10
   5   0  -7  303.93    6.99
   5   0  -7  318.13    6.92
  -5   0   7  296.36    6.92
  -5   0   7  286.60    5.97
  -5   0   7  303.20    4.44
   5   0  -8  133.83    4.00
   5   0  -8  137.77    5.10
   5   0  -8  142.72    5.10
  -5   0   8  127.35    4.95
  -5   0   8  124.29    4.22
   5   0  -9  643.39    8.81
   5   0  -9  695.02   11.07
   5   0  -9  689.48   10.85
  -5   0   9  646.52   10.63
  -5   0   9  650.82    8.96
   5   0 -10    6.19    1.82
   5   0 -10    8.45    2.40
   5   0 -10    7.94    2.18
  -5   0  10    4.59    2.04
  -5   0  10    5.32    1.53
   5   0 -11   27.16    3.06
   5   0 -11   29.49    3.42
   5   0 -11   31.09    3.71
  -5   0  11   27.16    3.35
   5   0 -12   78.71    4.44
   5   0 -12   88.62    5.39
  -5   0  12   78.20    4.73
  -5   0  12   85.12    4.59
   5   0 -13   42.23    4.59
   5   0 -13   49.15    4.73
  -5   0  13   48.42    4.15
  -5   0  13   49.08    4.08
  -5   0  13   44.93    3.71
   5   0 -14    9.25    2.99
  -5   0  14    5.32    2.33
   5   0 -15   12.09    3.13
  -5   0  15   10.19    2.84
  -5   0  16   58.25    5.10
   6   0  16   15.07    3.64
  -6   0 -16   11.50    3.50
  -6   0 -16   15.07    3.71
   6   0  15   21.84    3.86
  -6   0 -15   23.96    4.08
  -6   0 -15   24.03    4.15
   6   0  14    1.97    2.11
   6   0  14    1.31    2.18
  -6   0 -14    2.77    2.40
  -6   0 -14    2.91    2.48
   6   0  13   53.30    4.51
   6   0  13   51.99    4.44
  -6   0 -13   57.96    4.73
  -6   0 -13   59.05    4.95
   6   0  12   62.62    4.51
   6   0  12   59.27    4.44
  -6   0 -12   67.57    4.81
  -6   0 -12   64.51    4.95
   6   0  11  137.77    5.90
   6   0  11  138.42    5.83
  -6   0 -11  142.35    6.04
   6   0  10   75.29    4.51
   6   0  10   79.00    4.44
  -6   0 -10   82.57    4.88
  -6   0 -10   78.20    4.44
   6   0   9   84.83    4.44
   6   0   9   81.41    4.22
  -6   0  -9   88.03    4.73
  -6   0  -9   87.89    4.37
   6   0   8   52.86    3.64
   6   0   8   47.48    3.20
  -6   0  -8   50.90    2.91
  -6   0  -8   52.28    3.79
  -6   0  -8   52.65    3.35
  -6   0  -8   54.76    2.11
  -6   0  -8   52.86    2.04
   6   0   7  320.46    7.50
   6   0   7  318.49    6.70
  -6   0  -7  293.81    5.97
  -6   0  -7  343.47    7.94
  -6   0  -7  329.49    6.84
  -6   0  -7  364.95    5.39
  -6   0  -7  346.60    5.24
   6   0   6  219.90    6.12
   6   0   6  221.87    5.24
  -6   0  -6  238.54    6.48
  -6   0  -6  233.37    5.39
  -6   0  -6  240.07    4.59
  -6   0  -6  251.72    4.73
   6   0   5   86.14    3.86
   6   0   5   87.89    3.20
  -6   0  -5   99.39    4.30
  -6   0  -5   95.17    3.13
   6   0   4   90.80    3.86
   6   0   4   92.33    2.99
   6   0   4   94.88    3.20
   6   0   4   88.03    2.99
  -6   0  -4   92.33    3.93
  -6   0  -4  105.44    3.20
  -6   0  -4   95.75    3.13
   6   0   3   36.63    2.04
   6   0   3   33.57    1.89
  -6   0  -3   32.48    1.97
  -6   0  -3   34.73    2.04
   6   0   2  127.43    4.30
   6   0   2  141.26    3.79
   6   0   2  144.32    3.42
   6   0   2  121.24    3.13
  -6   0  -2  137.55    3.79
  -6   0  -2  136.16    4.44
  -6   0  -2  138.93    3.64
   6   0   1  960.50   11.00
   6   0   1  992.76    9.25
   6   0   1 1055.74   10.27
   6   0   1 1077.80    8.30
   6   0   1  903.49    7.57
  -6   0  -1 1044.02   10.19
  -6   0  -1 1002.88   11.00
   6   0   0  152.40    4.59
   6   0   0  158.01    3.57
   6   0   0  166.89    4.44
   6   0   0  167.26    2.84
   6   0   0  145.05    2.62
  -6   0   0  161.72    4.44
  -6   0   0  156.99    4.44
   6   0  -1  441.91    7.35
   6   0  -1  448.18    5.24
   6   0  -1  452.18    7.35
  -6   0   1  460.92    7.43
  -6   0   1  438.27    6.92
   6   0  -2  549.82    5.10
   6   0  -2  544.00    8.37
  -6   0   2  572.76    8.52
  -6   0   2  544.65    7.50
   6   0  -3   26.72    2.55
   6   0  -3   29.71    2.62
  -6   0   3   33.71    2.69
  -6   0   3   26.50    2.11
   6   0  -4    0.66    1.24
   6   0  -4    1.53    1.24
  -6   0   4    0.00    1.24
  -6   0   4    1.75    1.02
   6   0  -5  333.35    5.32
   6   0  -5  314.56    7.14
   6   0  -5  322.21    6.99
  -6   0   5  311.06    7.06
  -6   0   5  322.79    5.46
   6   0  -6  161.65    5.46
   6   0  -6  170.46    5.46
  -6   0   6  151.75    5.32
  -6   0   6  154.15    3.79
   6   0  -7  216.77    6.48
   6   0  -7  213.35    6.26
  -6   0   7  201.04    6.26
  -6   0   7  198.06    5.61
   6   0  -8  100.85    4.88
   6   0  -8   97.13    4.73
  -6   0   8   95.53    4.88
  -6   0   8   89.05    4.08
   6   0  -9  179.56    6.55
   6   0  -9  192.16    6.48
  -6   0   9  172.28    6.33
  -6   0   9  164.05    5.32
   6   0 -10  191.28    6.92
   6   0 -10  194.42    6.77
  -6   0  10  182.47    6.70
  -6   0  10  182.40    5.61
   6   0 -11   66.12    4.81
   6   0 -11   73.03    4.95
  -6   0  11   59.71    4.59
   6   0 -12  299.20    8.81
  -6   0  12  263.30    8.23
   6   0 -13   84.90    5.90
  -6   0  13   80.10    5.39
   6   0 -14   43.18    5.02
  -6   0  14   39.54    4.30
   6   0 -15    3.64    2.77
  -6   0  15    2.48    2.33
   6   0 -16    9.10    4.08
  -6   0  16    9.25    2.91
   7   0  15    5.61    2.77
   7   0  15    3.93    3.13
  -7   0 -15    8.01    3.28
   7   0  14   54.98    5.02
   7   0  14   45.80    4.66
  -7   0 -14   45.73    5.17
   7   0  13    3.64    2.26
   7   0  13    4.88    2.40
  -7   0 -13    6.26    2.91
   7   0  12   36.33    4.15
   7   0  12   30.22    3.71
  -7   0 -12   30.51    3.93
   7   0  11   15.51    3.06
   7   0  11   13.18    2.77
  -7   0 -11   16.24    2.91
   7   0  10   74.93    4.81
   7   0  10   78.20    4.51
  -7   0 -10   89.13    5.32
  -7   0 -10   77.91    4.59
   7   0   9  105.07    5.32
   7   0   9  108.79    4.81
  -7   0  -9  110.17    5.61
  -7   0  -9  107.11    4.88
  -7   0  -9  116.72    2.77
  -7   0  -9  114.90    2.69
   7   0   8   43.32    3.71
   7   0   8   46.60    3.28
  -7   0  -8   42.89    3.13
  -7   0  -8   45.36    4.00
  -7   0  -8   48.06    2.33
  -7   0  -8   46.67    2.33
  -7   0  -7   18.79    1.82
   7   0   6   10.92    2.26
   7   0   6   11.58    1.82
  -7   0  -6    9.54    1.97
  -7   0  -6    9.47    2.33
  -7   0  -6    8.16    1.38
  -7   0  -6   10.05    1.53
  -7   0  -5  156.48    5.68
   7   0   4   70.41    3.93
  -7   0  -4   76.97    4.15
   7   0   3  136.60    5.02
   7   0   3  150.51    3.93
   7   0   3  122.33    3.57
  -7   0  -3  141.77    5.10
   7   0   2  103.83    4.37
   7   0   2  101.50    3.71
   7   0   2  100.63    3.13
   7   0   2   87.09    2.84
  -7   0  -2  105.22    3.79
  -7   0  -2   98.52    4.22
   7   0   1  199.95    5.75
   7   0   1  204.10    4.73
   7   0   1  219.97    5.39
   7   0   1  221.21    4.00
   7   0   1  189.46    3.71
  -7   0  -1  216.19    5.32
  -7   0  -1  197.47    5.53
   7   0   0  119.78    4.51
   7   0   0  124.37    3.57
   7   0   0  126.92    4.37
   7   0   0  132.23    2.62
   7   0   0  114.03    2.40
  -7   0   0  131.58    4.44
  -7   0   0  124.73    4.44
   7   0  -1   67.43    2.55
   7   0  -1   71.80    3.64
  -7   0   1   76.82    3.79
  -7   0   1   69.90    3.42
   7   0  -2  199.37    3.50
   7   0  -2  206.79    5.75
   7   0  -2  205.99    5.97
  -7   0   2  205.99    5.83
  -7   0   2  197.04    5.17
   7   0  -3   39.10    3.13
   7   0  -3   37.43    3.13
  -7   0   3   42.31    3.28
  -7   0   3   35.02    2.62
   7   0  -4  137.11    5.17
   7   0  -4  131.58    5.10
  -7   0   4  130.27    5.10
  -7   0   4  131.43    4.15
   7   0  -5    9.39    2.18
   7   0  -5    8.08    2.11
  -7   0   5    7.86    2.04
  -7   0   5    8.16    1.60
   7   0  -6  186.41    6.26
   7   0  -6  188.08    6.19
  -7   0   6  177.60    6.19
  -7   0   6  176.58    4.51
   7   0  -7  279.32    7.86
   7   0  -7  267.01    7.43
  -7   0   7  251.07    7.43
  -7   0   7  230.97    6.55
   7   0  -8   41.43    4.15
   7   0  -8   36.99    3.93
  -7   0   8   38.88    4.00
  -7   0   8   30.22    3.28
   7   0  -9   12.38    2.99
   7   0  -9   12.60    2.77
  -7   0   9   11.43    2.77
  -7   0   9    8.81    2.18
   7   0 -10   51.12    4.66
   7   0 -10   56.50    4.66
  -7   0  10   48.64    4.51
  -7   0  10   46.82    3.79
   7   0 -11   69.17    5.17
  -7   0  11   58.18    4.95
   7   0 -12   61.89    5.24
  -7   0  12   56.87    5.10
   7   0 -13   44.49    4.95
  -7   0  13   44.34    4.95
   7   0 -14   36.19    4.66
   7   0 -15   17.40    3.93
  -7   0  15   12.82    3.35
   8   0  14   25.19    4.08
   8   0  14   26.72    4.08
   8   0  14   26.29    6.55
  -8   0 -14   28.32    4.73
   8   0  13    5.10    2.62
   8   0  13    3.71    2.40
   8   0  13    0.00    2.33
  -8   0 -13    4.22    2.84
   8   0  12   16.02    3.28
   8   0  12   12.60    2.84
   8   0  12   15.58    3.50
   8   0  11   25.99    3.79
   8   0  11   28.62    3.64
   8   0  10    8.01    2.62
   8   0  10    9.03    2.33
  -8   0 -10    8.74    2.77
   8   0   9   66.55    4.88
  -8   0  -9   73.83    5.17
  -8   0  -9   69.39    2.69
  -8   0  -9   69.83    2.69
   8   0   8   12.16    2.62
  -8   0  -8   11.43    2.26
  -8   0  -8   15.22    3.06
  -8   0  -8   13.47    1.75
  -8   0  -8   13.25    1.75
   8   0   7    1.17    1.75
  -8   0  -7    0.58    1.53
  -8   0  -7   -1.75    1.67
  -8   0  -7    0.66    1.31
  -8   0  -7   -0.29    1.02
   8   0   6   64.95    4.37
  -8   0  -6   60.51    3.86
  -8   0  -6   70.19    4.66
   8   0   5   87.74    4.81
   8   0   5   99.25    4.66
  -8   0  -5   88.32    4.44
  -8   0  -5   98.66    5.10
   8   0   4  277.72    7.65
   8   0   4  279.68    6.92
  -8   0  -4  292.42    7.86
   8   0   3  557.76   10.34
   8   0   3  566.79    9.17
   8   0   3  589.80    7.94
   8   0   3  499.44    7.21
  -8   0  -3  580.77   10.49
   8   0   2  181.09    6.19
   8   0   2  181.02    5.10
   8   0   2  191.14    4.30
   8   0   2  162.60    3.93
  -8   0  -2  193.83    5.39
  -8   0  -2  200.97    6.33
   8   0   1  376.16    8.37
   8   0   1  382.50    6.77
   8   0   1  419.49    5.53
   8   0   1  347.55    4.95
  -8   0  -1  403.69    7.79
  -8   0  -1  393.27    8.37
   8   0   0   70.63    4.15
   8   0   0   73.69    3.13
   8   0   0   77.84    4.00
  -8   0   0   70.99    3.86
  -8   0   0   73.11    4.00
   8   0  -1  192.09    5.97
  -8   0   1  182.33    5.83
  -8   0   1  171.55    5.46
   8   0  -2   26.50    3.06
   8   0  -2   22.79    2.91
  -8   0   2   23.01    2.99
  -8   0   2   23.01    2.62
   8   0  -3  118.54    5.17
   8   0  -3  114.03    5.17
  -8   0   3  118.69    5.17
  -8   0   3  114.39    4.44
   8   0  -4    6.92    2.18
   8   0  -4    6.33    2.11
  -8   0   4    5.75    2.18
  -8   0   4    8.81    1.97
   8   0  -5   41.50    4.00
   8   0  -5   41.58    4.00
  -8   0   5   40.56    4.00
  -8   0   5   35.32    2.91
   8   0  -6  205.48    7.21
   8   0  -6  204.10    6.92
  -8   0   6  197.55    7.06
  -8   0   6  189.32    6.55
   8   0  -7   50.46    4.59
   8   0  -7   50.39    4.44
  -8   0   7   58.98    4.66
  -8   0   7   43.98    3.93
   8   0  -8   58.98    4.88
   8   0  -8   58.40    4.73
  -8   0   8   51.12    4.66
  -8   0   8   52.14    4.22
   8   0  -9   41.94    4.59
   8   0  -9   48.57    4.59
  -8   0   9   44.27    4.59
  -8   0   9   40.05    3.93
   8   0 -10    9.25    2.84
  -8   0  10    9.83    2.99
  -8   0  10   10.56    2.55
   8   0 -11  100.78    6.04
  -8   0  11  101.29    6.33
   8   0 -12   90.44    6.19
  -8   0  12   81.04    6.12
   8   0 -13   32.33    4.44
   8   0 -14    8.96    3.50
   8   0 -15    5.75    3.64
   9   0  13   13.91    3.57
   9   0  12    5.97    2.77
   9   0  12    6.55    2.99
   9   0  11   27.16    4.00
   9   0  11   28.03    4.44
   9   0  10   23.74    3.86
   9   0  10   24.54    3.79
  -9   0 -10   23.66    3.93
   9   0   9   13.18    2.99
   9   0   9   15.00    3.20
  -9   0  -9   14.56    3.35
  -9   0  -9   13.40    1.82
  -9   0  -9   12.52    1.75
   9   0   8   58.11    4.95
   9   0   8   53.23    4.59
  -9   0  -8   56.72    4.95
  -9   0  -8   60.29    3.86
   9   0   7   25.19    3.71
   9   0   7   29.64    3.79
  -9   0  -7   24.17    3.28
  -9   0  -7   25.27    3.79
   9   0   6    7.50    2.40
   9   0   6    9.17    2.33
  -9   0  -6    5.53    2.04
  -9   0  -6    7.21    2.40
   9   0   5    4.73    2.11
   9   0   5    4.81    1.97
  -9   0  -5    4.95    2.11
  -9   0  -5    5.53    2.40
   9   0   4   73.54    4.81
   9   0   4   82.28    4.37
  -9   0  -4   72.16    4.59
  -9   0  -4   78.57    4.95
   9   0   3   36.04    3.86
   9   0   3   37.72    3.28
   9   0   3   32.04    2.40
   9   0   3   27.31    2.11
  -9   0  -3   31.97    3.71
  -9   0  -3   31.53    3.71
   9   0   2    3.06    2.04
   9   0   2    4.37    1.75
   9   0   2    4.30    1.24
   9   0   2    3.50    1.02
  -9   0  -2    4.37    2.18
   9   0   1  457.28    9.98
   9   0   1  481.96   11.14
   9   0   1  503.00    5.83
   9   0   1  432.01    5.32
  -9   0  -1  474.10    9.10
  -9   0  -1  476.43    9.83
  -9   0   0  101.50    4.88
  -9   0   0  101.21    4.95
  -9   0   1  116.36    5.24
  -9   0   1  114.76    5.17
   9   0  -2    5.10    2.18
   9   0  -2    5.39    2.33
  -9   0   2    6.55    2.26
  -9   0   2    4.30    2.04
   9   0  -3  100.48    5.32
   9   0  -3   95.90    5.46
  -9   0   3   90.80    5.24
  -9   0   3   90.00    4.51
   9   0  -4  229.44    7.57
   9   0  -4  217.72    7.50
  -9   0   4  222.74    7.50
  -9   0   4  202.86    7.21
  -9   0   4  218.30    6.26
   9   0  -5   68.81    4.95
   9   0  -5   68.01    5.17
  -9   0   5   67.50    5.02
  -9   0   5   56.36    4.51
   9   0  -6  319.44    9.25
   9   0  -6  305.24    8.88
  -9   0   6  311.14    9.10
  -9   0   6  276.04    8.30
   9   0  -7   85.92    5.68
   9   0  -7   95.31    5.83
  -9   0   7   79.95    5.53
  -9   0   7   79.22    5.10
   9   0  -8   22.72    3.71
  -9   0   8   27.96    4.00
  -9   0   8   20.02    3.28
   9   0  -9    8.45    2.91
  -9   0   9   10.27    3.06
  -9   0   9    8.81    2.55
   9   0 -10   27.31    4.08
  -9   0  10   20.90    3.86
  -9   0  10   27.45    3.71
   9   0 -11   15.80    3.50
  -9   0  11   22.72    4.15
   9   0 -12    3.93    3.06
   9   0 -13   15.07    3.79
   9   0 -14   20.17    5.32
  10   0  12    5.24    4.95
  10   0  11    5.97    2.99
  10   0  11    8.96    3.20
  10   0  10   45.87    5.24
  10   0  10   45.80    5.02
 -10   0 -10   48.71    5.53
 -10   0 -10   43.76    2.40
 -10   0 -10   44.05    2.48
  10   0   9    1.02    2.33
  10   0   9    1.09    2.26
 -10   0  -9    2.91    2.55
 -10   0  -9    2.48    1.38
 -10   0  -9    1.97    1.38
  10   0   8  136.60    7.14
  10   0   8  133.18    6.63
 -10   0  -8  139.15    7.28
  10   0   7    4.08    2.48
  10   0   7    2.40    2.11
 -10   0  -7    5.17    2.33
 -10   0  -7    4.95    2.77
  10   0   6   20.53    3.57
  10   0   6   23.16    3.42
 -10   0  -6   23.30    3.50
 -10   0  -6   29.85    4.30
  10   0   5   29.27    4.15
  10   0   5   26.58    3.42
 -10   0  -5   28.03    3.64
 -10   0  -5   27.52    4.00
  10   0   4    3.57    2.33
  10   0   4    5.61    2.11
 -10   0  -4    5.61    2.48
 -10   0  -4    6.70    2.55
  10   0   3   18.06    3.20
  10   0   3   18.49    4.22
  10   0   3   18.64    2.18
  10   0   3   17.04    1.89
 -10   0  -3   17.84    3.28
 -10   0  -3   18.28    3.35
  10   0   2   36.19    4.22
  10   0   2   39.98    2.33
  10   0   2   33.42    2.04
 -10   0  -2   34.00    4.00
 -10   0  -2   38.37    4.30
 -10   0  -1  111.26    5.97
 -10   0  -1  109.59    5.75
 -10   0   0   32.26    4.00
 -10   0   0   35.46    4.15
  10   0  -1   21.26    3.50
 -10   0   1   21.84    3.28
 -10   0   1   21.19    3.50
 -10   0   1   26.80    3.50
  10   0  -2   37.21    4.44
 -10   0   2   32.91    4.08
 -10   0   2   28.83    3.86
 -10   0   2   38.52    4.00
  10   0  -3   75.29    5.39
 -10   0   3   68.30    5.10
 -10   0   3   57.96    4.95
 -10   0   3   72.31    4.59
  10   0  -4    5.46    2.62
 -10   0   4    6.63    2.69
 -10   0   4    3.79    2.40
 -10   0   4    6.92    2.62
  10   0  -5   30.51    4.15
 -10   0   5   31.60    4.08
 -10   0   5   25.49    3.71
  10   0  -6   26.07    4.08
 -10   0   6   26.58    4.08
 -10   0   6   21.92    3.64
  10   0  -7   26.94    4.00
 -10   0   7   30.07    4.30
 -10   0   7   32.77    4.22
  10   0  -8   12.52    3.35
 -10   0   8   14.85    3.50
 -10   0   8   13.11    3.13
  10   0  -9   33.13    4.66
 -10   0   9   26.65    4.37
 -10   0   9   29.85    4.08
  10   0 -10    3.79    2.91
 -10   0  10    5.10    3.13
 -10   0  10    1.89    2.40
  10   0 -11   15.15    3.79
  10   0 -12   15.22    3.86
  11   0  10   82.43    6.33
 -11   0 -10   78.20    3.28
 -11   0 -10   76.38    3.28
  11   0   9   36.41    4.88
  11   0   9   38.88    4.95
 -11   0  -9   39.68    5.24
  11   0   8   30.07    4.59
  11   0   8   30.73    4.37
 -11   0  -8   31.02    4.66
  11   0   7    4.22    2.91
  11   0   7    1.46    2.26
 -11   0  -7    4.51    2.62
 -11   0  -7    1.17    2.55
  11   0   6   35.90    4.88
  11   0   6   39.17    4.44
 -11   0  -6   30.95    4.22
 -11   0  -6   37.72    5.02
  11   0   5    5.90    2.69
 -11   0  -5    8.45    2.77
 -11   0  -5    7.43    3.06
  11   0   4   22.94    3.86
 -11   0  -4   25.99    3.93
 -11   0  -4   23.01    3.86
  11   0   3    8.30    2.91
  11   0   3   12.38    1.89
  11   0   3    8.59    1.53
 -11   0  -3    7.28    2.84
 -11   0  -3    8.37    2.91
  11   0   2   68.52    2.48
  11   0   2   60.36    2.26
 -11   0  -2   69.03    5.53
 -11   0  -2   77.33    5.61
 -11   0  -1   10.41    3.13
 -11   0  -1   11.14    2.99
 -11   0   0   18.13    3.57
 -11   0   0   14.56    3.20
  11   0  -1   69.90    5.68
 -11   0   1   62.04    5.53
 -11   0   1   74.27    5.17
  11   0  -2   60.73    5.46
 -11   0   2   56.07    5.39
 -11   0   2   58.69    4.88
  11   0  -3   35.46    4.81
 -11   0   3   36.70    4.59
 -11   0   3   27.52    4.15
 -11   0   3   39.17    4.22
  11   0  -4   76.38    5.90
 -11   0   4   67.21    5.61
 -11   0   4   66.33    5.68
  11   0  -5   43.76    5.39
 -11   0   5   38.88    4.81
 -11   0   5   33.79    4.44
  11   0  -6   69.47    5.90
 -11   0   6   66.92    5.90
 -11   0   6   69.61    5.83
  11   0  -7   18.93    3.86
 -11   0   7   18.71    3.93
 -11   0   7   19.88    3.86
  11   0  -8   15.36    3.71
 -11   0   8   20.90    3.93
  11   0  -9   14.56    3.93
 -11   0   9   18.13    3.79
  11   0 -10    9.98    3.57
 -11   0  10    8.01    3.13
  12   0   6   43.98    5.46
 -12   0  -6   46.60    5.46
 -12   0  -6   51.33    5.83
  12   0   5   39.39    5.32
 -12   0  -5   38.88    4.95
 -12   0  -5   44.64    5.53
  12   0   4   13.40    3.71
  12   0   4   12.67    2.04
  12   0   4   11.87    1.82
 -12   0  -4   16.89    3.79
 -12   0  -4   13.11    3.64
  12   0   3    5.46    1.31
 -12   0  -3    7.06    3.28
 -12   0  -3    8.52    3.28
 -12   0  -2   17.91    3.93
 -12   0  -2   14.71    3.50
 -12   0  -1  103.83    6.92
 -12   0  -1  112.64    6.63
  12   0   0   49.08    5.68
 -12   0   0   52.28    5.83
 -12   0   0   45.15    5.02
  12   0  -1    3.79    2.99
 -12   0   1    4.59    2.84
 -12   0   1    4.59    2.77
  12   0  -2   24.03    4.44
 -12   0   2   24.39    4.37
 -12   0   2   23.01    3.93
  12   0  -3   21.63    4.22
 -12   0   3   20.17    4.08
  12   0  -4    2.33    2.99
 -12   0   4    0.29    2.55
  12   0  -5   31.46    4.88
 -12   0   5   29.78    4.88
  12   0  -6   67.06    6.12
 -12   0   6   70.78    6.26
  12   0  -7    9.17    3.64
 -12   0   7   12.96    3.64
 -12   0   8   19.73    5.53
  13   0   5   14.13    2.26
  13   0   5   11.50    2.04
 -13   0  -3    6.48    5.61
 -13   0  -3    8.52    4.44
 -13   0  -2   14.56    5.32
 -13   0  -2   16.31    3.86
 -13   0  -1    6.99    5.61
 -13   0  -1    8.01    3.35
 -13   0   0   55.99    5.83
 -13   0   1   50.46    8.37
 -13  -1   0    3.20    4.44
 -12  -1   5    9.61    3.71
  12   1  -5    5.83    3.42
 -12  -1   4   16.24    4.00
 -12  -1   4   11.50    3.71
  12   1  -4   17.04    4.08
 -12  -1   3    9.47    3.57
  12   1  -3    5.17    3.13
 -12  -1   2    1.82    2.84
 -12  -1   2    5.02    2.99
  12   1  -2    5.97    3.28
 -12  -1   1    9.54    3.50
 -12  -1   1   13.33    3.50
  12   1  -1    9.47    3.50
 -12  -1   0   37.21    5.24
 -12  -1   0   47.84    5.46
  12   1   0   39.90    5.17
 -12  -1  -1    7.65    3.50
 -12  -1  -1    8.37    3.20
 -12  -1  -2    5.32    3.20
 -12  -1  -2    5.24    3.06
 -12  -1  -3   66.84    6.12
 -12  -1  -3   58.54    5.90
  12   1   3   61.02    6.12
 -12  -1  -4    4.66    3.06
 -12  -1  -4    6.70    3.28
  12   1   4    5.75    3.42
  12   1   4    4.73    1.53
  12   1   4    4.22    1.31
 -12  -1  -5   12.16    3.50
  12   1   5    6.26    2.40
 -12  -1  -6   24.03    4.37
 -11  -1  10   15.51    4.22
 -11  -1   9   16.89    3.86
  11   1  -9   16.53    4.22
 -11  -1   8  103.69    7.86
 -11  -1   8   94.08    6.77
  11   1  -8  103.03    6.99
 -11  -1   7    6.04    3.20
 -11  -1   7    1.82    2.62
  11   1  -7    4.59    2.99
 -11  -1   6   13.40    3.71
 -11  -1   6   13.54    3.57
  11   1  -6   10.41    3.42
 -11  -1   5   28.03    4.51
 -11  -1   5   24.54    4.15
  11   1  -5   28.32    4.44
 -11  -1   4    3.20    2.77
 -11  -1   4    2.26    2.77
  11   1  -4    3.93    2.84
 -11  -1   3   21.04    3.86
 -11  -1   3   19.81    3.86
 -11  -1   3   23.16    3.64
  11   1  -3   24.90    4.22
 -11  -1   2   63.93    5.46
 -11  -1   2   62.04    5.75
 -11  -1   2   64.37    5.39
  11   1  -2   62.77    5.90
 -11  -1   1  141.84    6.92
 -11  -1   1  129.32    7.35
 -11  -1   1  142.06    6.99
  11   1  -1  146.50    7.65
 -11  -1   0   35.53    4.30
 -11  -1   0   36.84    4.73
 -11  -1   0   36.84    4.59
 -11  -1  -1   19.15    3.79
 -11  -1  -1   21.48    3.86
 -11  -1  -2    8.96    3.28
 -11  -1  -2   11.58    3.28
  11   1   2    9.54    3.13
 -11  -1  -3    7.06    2.99
 -11  -1  -3    8.66    3.06
  11   1   3   10.19    3.28
  11   1   3    8.74    1.53
  11   1   3    7.43    1.31
 -11  -1  -4   38.74    4.81
 -11  -1  -4   45.00    5.17
  11   1   4   33.64    4.59
  11   1   4   38.30    2.84
  11   1   4   31.31    2.40
 -11  -1  -5   27.45    4.22
 -11  -1  -5   24.39    4.22
  11   1   5   22.94    4.15
 -11  -1  -6   48.42    5.17
 -11  -1  -6   46.89    5.46
  11   1   6   39.25    5.02
 -11  -1  -7   45.29    6.04
 -11  -1  -7   50.61    5.83
  11   1   7   53.88    5.83
 -11  -1  -8   44.49    7.72
  11   1   8   31.60    6.41
  11   1   8   36.99    4.66
  11   1   9   36.48    4.88
  10   1 -11    5.39    3.28
 -10  -1  10   11.00    3.57
 -10  -1  10    8.16    3.06
  10   1 -10    8.30    3.20
 -10  -1   9   23.88    4.30
 -10  -1   9   26.21    4.15
  10   1  -9   26.43    4.44
 -10  -1   8    1.97    2.69
 -10  -1   8    1.31    2.26
  10   1  -8    2.69    2.91
  10   1  -8    2.40    2.55
 -10  -1   7   25.12    4.15
 -10  -1   7   11.65    3.13
  10   1  -7   17.62    3.86
  10   1  -7   17.18    3.64
 -10  -1   6   14.34    3.50
 -10  -1   6   12.67    3.28
  10   1  -6    9.98    3.35
  10   1  -6   12.74    3.35
 -10  -1   5   11.36    3.20
 -10  -1   5    9.47    2.91
  10   1  -5   12.74    3.28
  10   1  -5   12.67    3.28
 -10  -1   4    6.48    2.84
 -10  -1   4    4.88    2.33
  10   1  -4    3.64    2.69
  10   1  -4    8.23    2.99
 -10  -1   3   57.09    5.10
 -10  -1   3   50.97    4.37
  10   1  -3   57.45    5.10
  10   1  -3   52.21    5.32
 -10  -1   2  125.39    6.33
 -10  -1   2  132.60    6.19
  10   1  -2  133.54    6.63
  10   1  -2  130.56    6.77
 -10  -1   1   35.75    4.22
 -10  -1   1   36.63    4.37
  10   1  -1   34.59    4.08
 -10  -1   0   58.91    4.59
 -10  -1   0   60.65    4.88
 -10  -1  -1   46.89    4.08
 -10  -1  -1   48.64    4.81
  10   1   1   44.78    4.59
 -10  -1  -2   50.24    6.12
 -10  -1  -2   51.55    4.95
  10   1   2   52.72    4.88
  10   1   2   48.06    2.33
  10   1   2   42.23    2.11
 -10  -1  -3   21.19    3.64
  10   1   3   20.68    3.50
  10   1   3   22.06    2.26
  10   1   3   19.88    1.97
 -10  -1  -4    8.96    2.99
  10   1   4    7.21    2.69
 -10  -1  -5  130.63    6.41
 -10  -1  -5  141.84    7.06
  10   1   5  141.70    7.06
  10   1   5  144.97    6.19
 -10  -1  -6    6.77    2.62
 -10  -1  -6    6.26    2.77
  10   1   6    4.88    2.55
  10   1   6    8.66    2.55
 -10  -1  -7   78.64    5.32
 -10  -1  -7   92.55    6.26
  10   1   7   82.06    6.04
  10   1   7   93.71    5.75
 -10  -1  -8    5.17    2.91
  10   1   8    5.10    2.69
  10   1   8    2.69    2.33
 -10  -1  -9   49.37    5.46
  10   1   9   44.27    5.24
  10   1   9   45.22    4.95
 -10  -1 -10   14.71    4.00
 -10  -1 -10   16.38    2.04
 -10  -1 -10   13.47    1.89
  10   1  10   14.20    3.50
  10   1  10   17.04    3.79
  10   1  11   33.79    7.35
  -9  -1  12    8.23    3.35
   9   1 -12    7.79    3.28
  -9  -1  11   20.83    4.15
   9   1 -11   15.51    3.71
  -9  -1  10   14.56    3.64
  -9  -1  10   10.56    2.91
   9   1 -10   12.89    3.57
   9   1 -10   10.49    3.13
  -9  -1   9   32.04    4.51
  -9  -1   9   29.27    3.93
   9   1  -9   29.49    4.44
   9   1  -9   31.53    4.37
  -9  -1   8   23.16    3.86
  -9  -1   8   18.28    3.35
   9   1  -8   25.63    4.15
   9   1  -8   24.17    3.86
  -9  -1   7   51.04    5.10
  -9  -1   7   47.33    4.66
   9   1  -7   55.56    5.02
   9   1  -7   47.91    4.81
  -9  -1   6   23.66    3.86
   9   1  -6   24.25    3.86
   9   1  -6   25.70    3.79
  -9  -1   5   91.31    5.75
  -9  -1   5   87.89    5.83
   9   1  -5   92.84    5.68
   9   1  -5   86.50    5.68
  -9  -1   4   95.75    5.75
  -9  -1   4   99.97    4.95
   9   1  -4  107.40    5.97
   9   1  -4   95.61    5.75
  -9  -1   3  126.12    6.12
  -9  -1   3  120.14    5.39
   9   1  -3  126.26    6.04
   9   1  -3  107.77    5.83
  -9  -1   2  165.07    6.48
  -9  -1   2  169.22    6.26
   9   1  -2  172.28    6.63
   9   1  -2  156.41    6.63
  -9  -1   1   66.04    4.66
  -9  -1   1   70.78    4.51
   9   1  -1   69.10    4.73
  -9  -1   0   16.09    2.91
  -9  -1   0   10.85    2.62
   9   1   0   11.21    2.69
   9   1   0   13.69    2.69
  -9  -1  -1    5.32    2.18
  -9  -1  -1    5.97    2.40
   9   1   1    6.41    2.33
   9   1   1    7.28    2.26
   9   1   1    7.28    1.09
  -9  -1  -2  132.96    5.24
  -9  -1  -2  127.06    5.97
   9   1   2  129.17    6.12
   9   1   2  138.86    3.71
   9   1   2  113.96    3.28
  -9  -1  -3    0.00    1.97
   9   1   3    0.36    1.82
   9   1   3    2.11    1.60
   9   1   3    1.82    1.17
   9   1   3    1.89    1.02
  -9  -1  -4    5.68    2.40
   9   1   4    9.39    2.55
   9   1   4    7.43    2.18
  -9  -1  -5   36.26    4.22
   9   1   5   35.02    4.22
   9   1   5   33.71    3.64
  -9  -1  -6    2.99    2.26
   9   1   6    1.89    2.04
  -9  -1  -7    6.48    2.33
  -9  -1  -7    5.61    2.62
   9   1   7    4.44    2.40
  -9  -1  -8   21.12    3.79
   9   1   8   20.32    3.71
  -9  -1  -9   19.66    3.86
  -9  -1  -9   18.86    2.18
  -9  -1  -9   19.88    2.26
   9   1   9   12.01    3.06
  -9  -1 -10    9.90    3.20
  -9  -1 -10   10.85    1.60
  -9  -1 -10    9.25    1.53
   9   1  10    9.39    2.99
  -9  -1 -11   16.46    3.86
   9   1  11   12.67    3.28
  -9  -1 -12    4.22    2.91
   9   1  12    4.95    2.91
   9   1  12    5.75    2.91
  -8  -1  14   22.72    4.51
  -8  -1  13   83.88    6.55
   8   1 -13   96.77    6.48
  -8  -1  12    5.17    2.91
   8   1 -12    6.19    3.20
   8   1 -12    1.67    2.62
  -8  -1  11    3.79    2.77
   8   1 -11    2.99    2.77
   8   1 -11    3.93    2.77
  -8  -1  10   14.34    3.42
  -8  -1  10   16.46    2.99
   8   1 -10   18.13    3.71
   8   1 -10   16.31    3.28
  -8  -1   9    3.93    2.55
  -8  -1   9    3.71    2.11
   8   1  -9    3.20    2.62
   8   1  -9    3.20    2.40
  -8  -1   8    1.31    2.18
  -8  -1   8    2.62    2.04
   8   1  -8    4.88    2.55
   8   1  -8    4.66    2.40
  -8  -1   7   33.86    4.15
   8   1  -7   37.94    4.44
   8   1  -7   38.15    4.15
  -8  -1   6    3.42    2.18
   8   1  -6    6.33    2.48
   8   1  -6    2.40    2.18
  -8  -1   5   21.55    3.28
  -8  -1   5   19.73    2.55
   8   1  -5   22.72    3.28
   8   1  -5   20.39    3.13
  -8  -1   4  265.26    7.86
  -8  -1   4  257.33    6.63
   8   1  -4  270.65    7.86
   8   1  -4  270.73    7.79
  -8  -1   3    8.66    2.48
  -8  -1   3    7.43    1.97
   8   1  -3    8.88    2.40
   8   1  -3    4.73    2.11
  -8  -1   2  178.25    6.19
  -8  -1   2  174.97    5.75
   8   1  -2  177.09    6.04
  -8  -1   1  149.56    5.53
  -8  -1   1  145.19    5.39
   8   1  -1  144.68    5.68
   8   1  -1  142.50    5.46
  -8  -1   0  284.27    7.14
  -8  -1   0  276.19    7.35
   8   1   0  261.99    7.28
   8   1   0  277.64    7.06
  -8  -1  -1  234.10    6.33
  -8  -1  -1  234.97    6.99
   8   1   1  226.75    6.99
   8   1   1  229.44    5.46
   8   1   1  254.85    6.63
   8   1   1  244.58    4.15
   8   1   1  207.16    3.79
  -8  -1  -2  665.09    9.90
  -8  -1  -2  641.13   11.29
   8   1   2  619.22   11.14
   8   1   2  629.92    9.32
   8   1   2  693.05   10.12
   8   1   2  681.55    7.86
   8   1   2  544.07    6.99
  -8  -1  -3  211.09    5.68
  -8  -1  -3  201.48    6.77
   8   1   3  206.87    6.84
   8   1   3  216.62    4.95
   8   1   3  192.67    4.66
  -8  -1  -4  238.54    7.43
   8   1   4  235.63    7.35
  -8  -1  -5   96.04    5.17
   8   1   5   86.36    5.02
  -8  -1  -6   62.91    4.66
   8   1   6   67.43    4.66
  -8  -1  -7   15.51    3.13
   8   1   7   13.18    2.91
  -8  -1  -8   58.76    4.22
  -8  -1  -8   63.79    4.95
  -8  -1  -8   64.51    3.13
  -8  -1  -8   68.66    3.20
   8   1   8   57.45    4.81
  -8  -1  -9   22.79    3.71
  -8  -1  -9   27.16    2.11
  -8  -1  -9   22.65    2.11
   8   1   9   23.66    3.71
  -8  -1 -10   22.21    3.64
   8   1  10   23.37    3.71
  -8  -1 -11    8.08    2.91
   8   1  11    2.55    2.40
  -8  -1 -12   18.42    3.79
   8   1  12   18.71    3.71
   8   1  13    9.47    3.13
   8   1  14   11.00    3.42
  -7  -1  15    2.04    2.84
  -7  -1  14   11.14    3.35
  -7  -1  13    1.02    2.48
   7   1 -13   -0.87    2.48
   7   1 -13    3.06    2.62
  -7  -1  12   13.40    3.28
   7   1 -12   12.45    3.42
   7   1 -12    8.96    2.91
  -7  -1  11  122.98    6.55
   7   1 -11  114.68    6.48
   7   1 -11  113.96    5.97
  -7  -1  10   23.01    3.57
  -7  -1  10   18.20    2.84
   7   1 -10   23.74    3.71
   7   1 -10   23.08    3.42
  -7  -1   9   69.90    5.10
  -7  -1   9   65.24    4.30
   7   1  -9   81.55    5.46
   7   1  -9   77.11    5.02
  -7  -1   8  148.40    6.41
   7   1  -8  161.58    6.63
   7   1  -8  154.88    6.19
  -7  -1   7  133.18    5.97
   7   1  -7  141.26    6.12
   7   1  -7  137.11    5.68
  -7  -1   6  486.48   10.12
  -7  -1   6  476.65    7.86
   7   1  -6  496.67   10.19
   7   1  -6  493.25    9.68
  -7  -1   5  119.42    5.32
  -7  -1   5  124.15    4.37
   7   1  -5  123.42    5.32
   7   1  -5  121.53    5.24
  -7  -1   4  139.44    5.46
  -7  -1   4  148.98    4.81
   7   1  -4  143.23    5.46
   7   1  -4  142.21    5.39
  -7  -1   3    1.09    1.53
  -7  -1   3    0.51    1.31
   7   1  -3    2.11    1.60
   7   1  -3    1.89    1.60
  -7  -1   2  365.97    7.86
  -7  -1   2  362.91    7.35
   7   1  -2  370.92    7.86
  -7  -1   1  356.28    7.50
  -7  -1   1  342.08    7.28
   7   1  -1  346.96    7.50
   7   1  -1  345.14    5.17
   7   1  -1  350.82    7.43
  -7  -1   0   98.45    4.15
  -7  -1   0   95.31    4.22
   7   1   0   90.00    4.22
   7   1   0   89.13    3.13
   7   1   0   99.90    4.22
   7   1   0   98.74    2.18
   7   1   0   83.66    1.89
  -7  -1  -1  124.95    4.44
  -7  -1  -1  126.48    4.88
   7   1   1  116.58    4.73
   7   1   1  121.60    4.37
   7   1   1  132.74    3.20
   7   1   1  108.57    2.84
  -7  -1  -2   47.84    2.99
  -7  -1  -2   43.40    3.35
   7   1   2   44.64    3.42
   7   1   2   47.62    2.91
   7   1   2   49.59    2.40
   7   1   2   40.41    2.11
  -7  -1  -3  412.42    6.99
  -7  -1  -3  398.22    8.52
   7   1   3  395.68    8.52
   7   1   3  432.30    7.14
   7   1   3  420.58    6.55
   7   1   3  344.41    5.90
  -7  -1  -4  188.37    4.66
  -7  -1  -4  193.47    6.26
   7   1   4  180.22    6.04
  -7  -1  -5   90.80    4.73
   7   1   5   85.34    4.59
  -7  -1  -6   77.40    4.59
   7   1   6   72.01    4.37
   7   1   6   73.03    3.35
  -7  -1  -7   11.50    2.69
  -7  -1  -7   11.14    2.04
  -7  -1  -7   13.69    1.89
  -7  -1  -7   12.74    1.75
   7   1   7    8.66    2.18
   7   1   7   12.60    2.04
  -7  -1  -8   15.36    2.84
  -7  -1  -8   16.67    2.48
  -7  -1  -8   16.75    1.89
  -7  -1  -8   15.07    1.75
   7   1   8   13.03    2.62
   7   1   8   14.71    2.33
  -7  -1  -9    7.65    2.48
  -7  -1  -9    5.83    1.89
  -7  -1  -9    6.41    1.17
  -7  -1  -9    7.14    1.24
   7   1   9    8.01    2.33
   7   1   9    8.88    2.11
  -7  -1 -10   48.42    4.59
  -7  -1 -10   45.51    3.79
   7   1  10   47.62    4.44
   7   1  10   45.29    3.71
  -7  -1 -11    4.08    2.40
  -7  -1 -11    3.42    1.97
   7   1  11    3.64    2.26
   7   1  11    2.11    1.82
  -7  -1 -12    3.20    2.33
  -7  -1 -12    0.95    1.82
   7   1  12    2.04    2.18
   7   1  12    4.22    2.18
  -7  -1 -13    7.35    2.69
   7   1  13    6.26    2.69
   7   1  13    8.52    2.69
  -7  -1 -14   25.56    4.08
  -7  -1 -14   18.93    3.86
   7   1  14   20.32    3.79
   7   1  14   24.68    4.00
  -7  -1 -15   24.03    4.22
  -7  -1 -15   25.63    5.90
   7   1  15   25.27    4.22
   7   1  15   22.50    3.93
  -6  -1  15   13.54    3.35
  -6  -1  14   39.39    4.66
  -6  -1  14   28.11    3.79
   6   1 -14   35.46    4.51
  -6  -1  13  166.96    7.28
   6   1 -13  170.75    7.50
   6   1 -13  166.16    7.21
  -6  -1  12   11.94    2.91
   6   1 -12   12.16    3.06
   6   1 -12   16.31    3.13
  -6  -1  11   13.03    2.84
   6   1 -11   14.34    3.06
   6   1 -11   13.33    2.77
  -6  -1  10   22.65    3.42
  -6  -1  10   20.68    2.69
   6   1 -10   21.19    3.42
   6   1 -10   22.86    3.35
  -6  -1   9  162.96    6.41
   6   1  -9  173.52    6.70
   6   1  -9  184.37    6.41
  -6  -1   8   57.01    4.22
   6   1  -8   59.42    4.37
   6   1  -8   62.04    4.08
  -6  -1   7   23.01    3.06
  -6  -1   7   25.70    2.33
   6   1  -7   25.34    3.20
   6   1  -7   24.76    3.06
  -6  -1   6  329.49    6.04
   6   1  -6  337.06    7.94
   6   1  -6  336.62    7.50
  -6  -1   5   28.47    2.26
   6   1  -5   30.66    2.99
   6   1  -5   32.26    2.99
  -6  -1   4  110.97    3.79
   6   1  -4  113.81    4.51
   6   1  -4  108.20    4.44
  -6  -1   3  447.30    7.28
   6   1  -3  452.98    8.23
   6   1  -3  437.76    8.01
  -6  -1   2  129.54    4.22
   6   1  -2  125.61    4.30
   6   1  -2  129.54    2.62
   6   1  -2  135.73    4.59
  -6  -1   1  465.50    7.72
   6   1  -1  451.96    7.72
   6   1  -1  442.35    5.32
   6   1  -1  466.09    7.86
  -6  -1   0  419.49    7.50
   6   1   0  397.20    7.35
   6   1   0  423.49    7.21
   6   1   0  455.02    4.51
   6   1   0  397.86    4.22
  -6  -1  -1   69.90    3.42
   6   1   1   69.68    3.50
   6   1   1   72.89    3.20
   6   1   1   77.04    2.40
   6   1   1   62.04    2.11
  -6  -1  -2  798.20    9.03
  -6  -1  -2  772.49   10.49
   6   1   2  745.70   10.34
   6   1   2  788.88    9.03
   6   1   2  823.75    8.08
   6   1   2  692.18    7.43
  -6  -1  -3   47.33    2.55
  -6  -1  -3   44.20    3.06
   6   1   3   45.73    3.13
   6   1   3   43.83    1.89
   6   1   3   45.07    2.40
   6   1   3   48.71    2.40
   6   1   3   39.83    2.11
  -6  -1  -4  553.97    6.84
  -6  -1  -4  519.97    9.10
  -6  -1  -4  527.54    6.63
   6   1   4  512.62    9.03
   6   1   4  519.75    6.55
   6   1   4  563.95    6.92
   6   1   4  486.91    7.43
  -6  -1  -5  292.64    4.73
  -6  -1  -5  297.59    7.21
  -6  -1  -5  296.50    5.53
  -6  -1  -5  301.96    5.61
  -6  -1  -5  298.25    5.53
   6   1   5  294.03    7.14
   6   1   5  288.42    5.46
  -6  -1  -6  312.81    7.57
  -6  -1  -6  297.08    6.04
  -6  -1  -6  318.35    5.61
  -6  -1  -6  313.03    5.61
   6   1   6  287.47    5.90
  -6  -1  -7    7.65    2.18
  -6  -1  -7    9.83    1.89
  -6  -1  -7    9.61    1.46
  -6  -1  -7    9.39    1.46
   6   1   7    6.70    1.89
   6   1   7    9.17    1.82
  -6  -1  -8    1.09    1.67
  -6  -1  -8    2.33    1.46
  -6  -1  -8    1.75    0.95
  -6  -1  -8    2.77    1.02
   6   1   8    2.40    1.67
   6   1   8    3.42    1.53
  -6  -1  -9   11.43    2.62
  -6  -1  -9   11.80    2.33
   6   1   9   10.63    2.40
   6   1   9   12.31    2.40
  -6  -1 -10   25.49    3.42
  -6  -1 -10   21.04    2.99
   6   1  10   21.04    3.20
   6   1  10   23.23    3.13
  -6  -1 -11    2.33    2.11
  -6  -1 -11    5.97    2.18
   6   1  11    4.00    2.11
   6   1  11    3.79    1.97
  -6  -1 -12   35.10    4.00
   6   1  12   38.59    4.08
   6   1  12   43.03    4.08
  -6  -1 -13   27.67    4.00
  -6  -1 -13   25.12    3.86
   6   1  13   30.29    4.00
   6   1  13   29.42    4.00
  -6  -1 -14   -0.66    2.04
  -6  -1 -14    0.58    2.18
   6   1  14    2.18    2.11
   6   1  14   -0.87    1.89
  -6  -1 -15   16.46    3.64
  -6  -1 -15   15.80    3.57
   6   1  15   16.09    3.35
   6   1  15   14.49    3.28
  -6  -1 -16    3.93    3.06
  -5  -1  14   10.19    2.69
  -5  -1  14   10.78    2.77
   5   1 -14   10.70    2.99
  -5  -1  13   32.18    3.93
   5   1 -13   33.71    4.00
   5   1 -13   32.18    3.93
  -5  -1  12   29.78    3.64
   5   1 -12   34.22    4.08
   5   1 -12   36.99    4.08
  -5  -1  11   98.15    5.32
   5   1 -11  106.24    5.61
   5   1 -11  109.80    5.39
  -5  -1  10  413.52    9.25
  -5  -1  10  389.49    7.43
   5   1 -10  452.25    9.76
   5   1 -10  465.21    9.32
  -5  -1   9  587.76   10.56
  -5  -1   9  595.04    8.30
   5   1  -9  599.19    9.98
   5   1  -9  629.99   11.00
   5   1  -9  645.65   10.49
  -5  -1   8  287.25    5.32
   5   1  -8  284.49    5.39
   5   1  -8  301.96    7.50
   5   1  -8  315.36    7.21
  -5  -1   7   44.05    2.18
  -5  -1   7   43.11    2.33
   5   1  -7   38.15    2.11
   5   1  -7   36.92    3.20
   5   1  -7   41.58    3.13
  -5  -1   6   94.66    2.55
  -5  -1   6  105.29    3.28
   5   1  -6   98.66    2.62
   5   1  -6   97.79    4.22
   5   1  -6  105.44    4.15
  -5  -1   5  162.30    2.69
  -5  -1   5  170.02    4.08
   5   1  -5  164.78    5.10
   5   1  -5  164.85    4.81
  -5  -1   4  256.02    4.95
   5   1  -4  244.08    5.90
   5   1  -4  246.84    5.68
  -5  -1   3  850.99    9.03
   5   1  -3  829.07   10.19
   5   1  -3  828.41    9.83
  -5  -1   2  652.71    8.08
   5   1  -2  624.97    8.01
   5   1  -2  633.63    4.81
   5   1  -2  634.95    8.66
  -5  -1   1  161.87    4.30
   5   1  -1  164.20    4.37
   5   1  -1  168.57    4.44
  -5  -1   0  516.33    7.57
   5   1   0  513.78    7.57
   5   1   0  537.88    7.35
   5   1   0  549.46    4.88
   5   1   0  465.58    4.44
  -5  -1  -1   53.81    2.84
   5   1   1   50.53    2.77
   5   1   1   56.94    2.55
   5   1   1   55.70    1.97
   5   1   1   53.23    1.89
  -5  -1  -2   96.92    3.64
  -5  -1  -2  100.48    2.26
  -5  -1  -2  106.09    3.06
   5   1   2   93.71    3.57
   5   1   2   94.22    2.18
   5   1   2   99.68    3.06
   5   1   2  102.60    2.84
   5   1   2   89.64    2.62
  -5  -1  -3   84.32    2.48
  -5  -1  -3   88.69    2.84
  -5  -1  -3   82.14    2.77
   5   1   3   80.61    3.42
   5   1   3   82.50    2.40
   5   1   3   85.41    2.69
   5   1   3   89.64    2.84
   5   1   3   82.64    2.69
  -5  -1  -4  443.81    5.39
  -5  -1  -4  416.86    7.57
  -5  -1  -4  434.12    5.90
  -5  -1  -4  462.52    6.26
   5   1   4  417.67    7.57
   5   1   4  416.57    5.75
   5   1   4  447.30    5.46
   5   1   4  459.46    6.41
   5   1   4  391.74    5.90
  -5  -1  -5   88.76    3.86
  -5  -1  -5   87.67    3.13
  -5  -1  -5   93.13    2.91
  -5  -1  -5   92.84    2.91
   5   1   5   90.22    3.86
  -5  -1  -6  140.75    4.88
  -5  -1  -6  143.88    4.22
  -5  -1  -6  163.61    3.71
  -5  -1  -6  146.94    3.57
   5   1   6  136.60    4.73
  -5  -1  -7  386.79    8.01
  -5  -1  -7  367.50    6.99
  -5  -1  -7  406.67    5.39
  -5  -1  -7  386.87    5.24
   5   1   7  370.34    7.86
  -5  -1  -8   74.64    4.08
  -5  -1  -8   68.45    3.64
  -5  -1  -8   77.40    2.18
  -5  -1  -8   80.17    2.18
   5   1   8   72.01    3.93
  -5  -1  -9   27.09    3.20
  -5  -1  -9   22.50    2.84
   5   1   9   22.50    2.84
  -5  -1 -10  114.54    5.17
  -5  -1 -10  110.46    5.02
   5   1  10  106.53    5.02
  -5  -1 -11   74.34    4.51
  -5  -1 -11   71.14    4.59
   5   1  11   73.40    4.59
   5   1  11   72.89    4.51
  -5  -1 -12   54.76    4.51
  -5  -1 -12   53.96    4.51
   5   1  12   60.65    4.44
   5   1  12   54.61    4.30
  -5  -1 -13   16.67    3.28
  -5  -1 -13   15.51    3.20
   5   1  13   16.24    2.99
   5   1  13   16.02    3.06
  -5  -1 -14  104.05    6.19
  -5  -1 -14  106.82    6.19
   5   1  14  104.49    5.75
   5   1  14  101.43    6.04
  -5  -1 -15   14.42    3.42
  -5  -1 -15   15.58    3.42
   5   1  15   15.36    3.64
   5   1  15   14.42    3.42
  -5  -1 -16   33.06    4.73
  -5  -1 -16   29.56    4.37
   5   1  16   29.56    4.44
  -5  -1 -17   33.13    5.61
  -4  -1  15   34.44    3.86
  -4  -1  15   24.61    5.39
  -4  -1  14   27.23    3.42
  -4  -1  14   27.52    3.42
  -4  -1  14   27.01    3.42
   4   1 -14   27.74    3.64
   4   1 -14   26.50    3.50
   4   1 -14   31.97    3.93
  -4  -1  13    0.87    1.75
  -4  -1  13    0.73    1.75
  -4  -1  13    0.36    1.67
  -4  -1  13    1.53    1.75
   4   1 -13    0.73    1.89
   4   1 -13    1.82    1.97
   4   1 -13   -0.22    2.04
   4   1 -13    2.40    2.18
  -4  -1  12   57.16    4.08
  -4  -1  12   60.44    3.93
  -4  -1  12   54.98    3.79
  -4  -1  12   58.62    3.86
   4   1 -12   58.18    4.00
   4   1 -12   60.80    4.08
   4   1 -12   60.15    4.30
   4   1 -12   63.93    4.51
  -4  -1  11   99.76    4.81
  -4  -1  11   92.47    4.30
  -4  -1  11  102.01    4.59
   4   1 -11   95.02    4.37
   4   1 -11  102.52    4.73
   4   1 -11  104.71    5.02
   4   1 -11  102.30    5.02
  -4  -1  10  277.13    7.14
  -4  -1  10  281.87    6.19
  -4  -1  10  277.06    6.33
  -4  -1  10  315.36    7.14
   4   1 -10  288.64    6.55
   4   1 -10  292.35    7.50
   4   1 -10  310.70    7.50
  -4  -1   9  163.69    4.66
  -4  -1   9  181.02    5.24
   4   1  -9  167.98    4.81
   4   1  -9  178.03    5.75
   4   1  -9  175.92    5.46
  -4  -1   8   94.37    3.35
  -4  -1   8  101.58    3.86
  -4  -1   8  102.09    2.91
   4   1  -8   91.09    3.35
   4   1  -8  103.18    4.37
   4   1  -8   95.10    4.00
  -4  -1   7   59.93    2.55
  -4  -1   7   65.02    2.40
   4   1  -7   59.27    2.55
   4   1  -7   62.91    3.42
   4   1  -7   63.79    3.28
  -4  -1   6  584.48    6.26
  -4  -1   6  612.15    6.70
   4   1  -6  591.84    6.33
   4   1  -6  590.02    8.88
   4   1  -6  599.19    8.37
  -4  -1   5  166.02    2.99
  -4  -1   5  173.88    3.71
   4   1  -5  162.67    2.99
   4   1  -5  165.22    4.73
   4   1  -5  168.20    4.44
  -4  -1   4  227.91    2.91
  -4  -1   4  247.13    4.44
   4   1  -4  240.51    5.39
   4   1  -4  233.95    4.95
  -4  -1   3  110.53    3.13
   4   1  -3  106.38    3.57
   4   1  -3  102.30    3.35
  -4  -1   2  313.54    5.10
   4   1  -2  301.23    5.02
   4   1  -2  300.87    5.46
  -4  -1   1 1543.24   11.29
   4   1  -1 1503.70   11.14
   4   1  -1 1505.01   11.50
  -4  -1   0 1721.56   12.23
   4   1   0 1671.83   12.01
   4   1   0 1682.68   11.58
   4   1   0 1828.96   10.12
   4   1   0 1515.79    7.57
  -4  -1  -1 1313.29   11.00
  -4  -1  -1 1297.27    5.97
   4   1   1 1272.37   10.78
   4   1   1 1261.95    5.90
   4   1   1 1296.25    9.68
   4   1   1 1377.44    8.45
   4   1   1 1227.88    8.01
  -4  -1  -2  173.37    4.30
  -4  -1  -2  169.66    2.84
  -4  -1  -2    0.22    0.15
  -4  -1  -2  179.78    3.50
   4   1   2  185.46    4.44
   4   1   2  173.81    3.50
   4   1   2  195.36    3.57
   4   1   2  164.27    3.28
  -4  -1  -3 2920.46   17.40
  -4  -1  -3 2961.45   17.91
  -4  -1  -3 3122.23   14.56
   4   1   3 2909.97   17.40
   4   1   3 2944.85   14.93
   4   1   3 3175.53   17.48
   4   1   3 2699.54   19.44
  -4  -1  -4  348.71    6.33
  -4  -1  -4  349.07    5.17
  -4  -1  -4  402.52    5.32
  -4  -1  -4  358.69    5.02
   4   1   4  339.75    6.26
   4   1   4  364.66    4.15
   4   1   4    0.22    0.22
   4   1   4  332.25    5.02
  -4  -1  -5  331.38    6.41
  -4  -1  -5  338.59    5.61
  -4  -1  -5  379.15    5.02
  -4  -1  -5  385.77    5.10
   4   1   5  344.20    6.55
  -4  -1  -6   82.72    3.57
  -4  -1  -6   84.68    3.28
  -4  -1  -6   92.18    2.48
  -4  -1  -6   86.72    2.40
   4   1   6   82.50    3.57
  -4  -1  -7  170.61    5.10
  -4  -1  -7  170.75    4.81
  -4  -1  -7  198.86    3.06
  -4  -1  -7  187.57    2.99
   4   1   7  166.67    5.02
  -4  -1  -8  174.90    5.32
  -4  -1  -8  169.29    5.17
   4   1   8  167.26    5.24
  -4  -1  -9  102.96    4.44
  -4  -1  -9   98.74    4.37
   4   1   9  100.92    4.44
  -4  -1 -10  352.21    7.86
  -4  -1 -10  341.06    8.08
   4   1  10  344.71    7.94
  -4  -1 -11   11.21    2.33
  -4  -1 -11   12.45    2.55
   4   1  11   12.52    2.48
  -4  -1 -12   41.07    3.93
  -4  -1 -12   42.23    3.93
   4   1  12   40.19    3.71
  -4  -1 -13   96.77    5.61
  -4  -1 -13  103.11    5.53
   4   1  13  111.26    5.39
   4   1  13  102.23    5.61
  -4  -1 -14  134.78    6.70
  -4  -1 -14  127.79    6.26
   4   1  14  137.33    6.12
   4   1  14  131.72    6.48
  -4  -1 -15   20.83    3.86
  -4  -1 -15   18.13    3.42
   4   1  15   18.13    3.50
  -4  -1 -16    3.20    2.77
  -4  -1 -16    4.59    2.55
   4   1  16    4.44    2.62
  -4  -1 -17    9.32    3.06
  -3  -1  18   33.64    4.73
   3   1 -18   31.38    5.90
  -3  -1  17   32.04    4.44
   3   1 -17   30.80    4.37
  -3  -1  16   15.58    3.06
   3   1 -16   16.89    3.42
  -3  -1  15    9.10    2.62
   3   1 -15   10.70    2.99
  -3  -1  14   11.29    2.62
  -3  -1  14    5.53    2.26
  -3  -1  14    7.72    2.26
   3   1 -14    9.47    2.77
   3   1 -14    8.66    2.48
  -3  -1  13   25.12    2.99
  -3  -1  13   26.21    3.06
  -3  -1  13   19.88    2.91
  -3  -1  13   24.54    3.06
   3   1 -13   24.32    3.20
   3   1 -13   23.59    3.06
   3   1 -13   24.47    3.06
   3   1 -13   25.05    3.20
  -3  -1  12   80.31    4.22
  -3  -1  12   87.89    4.44
  -3  -1  12   80.31    4.37
  -3  -1  12   88.18    4.37
   3   1 -12   79.51    4.51
   3   1 -12   91.16    4.59
   3   1 -12   86.21    4.51
   3   1 -12   92.47    4.81
  -3  -1  11  835.99   11.58
  -3  -1  11  879.53   11.94
  -3  -1  11  847.78   11.65
  -3  -1  11  902.25   11.94
   3   1 -11  864.02   11.87
   3   1 -11  923.95   12.16
   3   1 -11  900.86   12.09
   3   1 -11  937.20   12.45
  -3  -1  10  127.79    4.66
  -3  -1  10  127.72    4.51
  -3  -1  10  136.75    4.73
   3   1 -10  126.48    4.66
   3   1 -10  137.84    4.81
   3   1 -10  125.68    4.73
   3   1 -10  142.94    5.02
  -3  -1   9  129.68    4.30
  -3  -1   9  138.78    3.28
   3   1  -9  117.30    4.15
   3   1  -9  132.96    4.51
   3   1  -9  133.03    4.66
   3   1  -9  138.86    4.66
  -3  -1   8  545.46    8.08
  -3  -1   8  563.73    6.12
   3   1  -8  508.83    7.43
   3   1  -8  541.16    8.08
   3   1  -8  519.82    8.30
   3   1  -8  567.23    8.37
  -3  -1   7  173.88    4.44
  -3  -1   7  181.45    3.50
   3   1  -7  167.55    4.08
   3   1  -7  184.66    4.66
   3   1  -7  169.73    4.73
   3   1  -7  182.69    4.66
  -3  -1   6   65.82    2.77
  -3  -1   6   63.57    2.18
   3   1  -6   61.75    2.40
   3   1  -6   67.86    2.84
   3   1  -6   59.27    2.91
   3   1  -6   63.35    2.77
  -3  -1   5  147.81    3.71
  -3  -1   5  150.07    3.13
   3   1  -5  132.89    2.91
   3   1  -5  131.72    3.86
   3   1  -5  136.96    3.64
  -3  -1   4  100.85    2.18
  -3  -1   4  104.93    2.62
   3   1  -4  102.09    2.18
   3   1  -4  101.80    3.06
  -3  -1   3 1265.01    5.83
  -3  -1   3 1350.42    8.96
   3   1  -3 1302.58   10.49
   3   1  -3 1334.62    9.90
  -3  -1   2 1491.98    9.54
   3   1  -2 1427.02    9.17
   3   1  -2 1446.32   10.56
  -3  -1   1  375.72    4.95
   3   1  -1  350.46    4.73
   3   1  -1  353.30    5.02
  -3  -1   0  334.00    4.81
   3   1   0  306.48    4.59
   3   1   0  320.82    4.51
   3   1   0  346.38    3.35
   3   1   0  300.00    3.13
  -3  -1  -1  723.71    7.28
  -3  -1  -1  716.86    4.37
  -3  -1  -1  766.01    6.55
  -3  -1  -1  725.31    6.12
   3   1   1  725.16    7.21
   3   1   1  727.42    6.33
   3   1   1  765.14    5.83
   3   1   1  682.20    5.46
  -3  -1  -2  632.54    7.06
  -3  -1  -2  611.86    5.02
  -3  -1  -2  626.13    5.75
  -3  -1  -2  630.14    5.75
   3   1   2  611.72    6.92
   3   1   2  617.47    5.39
   3   1   2  660.94    5.83
   3   1   2  547.13    5.32
  -3  -1  -3  835.11    8.45
  -3  -1  -3  831.54    6.84
  -3  -1  -3  925.18    7.06
  -3  -1  -3  897.73    6.99
   3   1   3  843.12    8.45
   3   1   3  823.75    5.68
   3   1   3    0.07    0.15
  -3  -1  -4 1346.64   11.07
  -3  -1  -4 1308.55    9.61
  -3  -1  -4 1469.11    8.81
  -3  -1  -4 1396.81    8.59
   3   1   4 1323.55   11.07
   3   1   4 1336.52    6.33
  -3  -1  -5  456.62    6.77
  -3  -1  -5  463.25    6.41
  -3  -1  -5  510.80    4.95
  -3  -1  -5  487.50    4.88
   3   1   5  445.55    6.77
  -3  -1  -6  614.56    8.16
  -3  -1  -6  601.67    7.94
  -3  -1  -6  711.69    5.10
  -3  -1  -6  644.12    4.88
   3   1   6  617.11    8.30
  -3  -1  -7   79.15    3.28
  -3  -1  -7   77.69    3.35
   3   1   7   82.72    3.42
  -3  -1  -8  217.64    5.39
  -3  -1  -8  206.87    5.53
   3   1   8  221.50    5.53
  -3  -1  -9  444.97    7.86
  -3  -1  -9  418.69    8.16
   3   1   9  443.15    8.01
  -3  -1 -10   62.48    3.50
  -3  -1 -10   62.77    3.86
  -3  -1 -10   61.24    3.64
   3   1  10   61.82    3.57
  -3  -1 -11   65.82    4.22
  -3  -1 -11   69.17    4.15
   3   1  11   72.45    4.00
  -3  -1 -12  254.41    7.72
  -3  -1 -12  245.53    7.21
   3   1  12  266.57    7.14
  -3  -1 -13   48.71    4.30
  -3  -1 -13   50.24    4.15
   3   1  13   52.65    3.86
  -3  -1 -14    2.55    2.18
  -3  -1 -14    0.22    1.89
   3   1  14    1.53    1.82
  -3  -1 -15   44.42    5.02
  -3  -1 -15   50.61    4.66
   3   1  15   50.02    4.81
  -3  -1 -16   12.23    3.42
  -3  -1 -16   11.58    3.06
   3   1  16    8.45    2.91
  -3  -1 -17   -2.91    2.33
  -3  -1 -17    0.00    2.99
   3   1  17    0.73    2.55
  -2  -1  18   21.26    4.00
   2   1 -18   19.81    4.00
  -2  -1  17   22.43    3.86
   2   1 -17   20.24    3.86
  -2  -1  16   38.01    4.44
   2   1 -16   39.54    4.88
  -2  -1  15   24.61    3.50
   2   1 -15   26.87    3.79
   2   1 -15   27.96    3.64
  -2  -1  14    1.89    1.89
   2   1 -14    1.75    2.11
   2   1 -14    1.09    1.97
  -2  -1  13    5.24    2.04
  -2  -1  13    7.79    2.11
  -2  -1  13    6.41    2.11
   2   1 -13    6.84    2.40
   2   1 -13    5.83    2.18
  -2  -1  12  316.16    6.99
  -2  -1  12  325.92    7.65
  -2  -1  12  301.23    7.65
   2   1 -12  325.48    8.08
   2   1 -12  341.14    7.86
   2   1 -12  339.97    7.35
  -2  -1  11   62.40    3.42
  -2  -1  11   68.96    3.64
  -2  -1  11   61.38    3.64
  -2  -1  11   62.62    4.30
   2   1 -11   63.86    4.00
   2   1 -11   72.31    3.93
   2   1 -11   65.82    3.57
   2   1 -11   64.08    3.86
  -2  -1  10   52.65    3.06
  -2  -1  10   54.10    2.62
   2   1 -10   49.44    3.28
   2   1 -10   54.39    3.28
   2   1 -10   51.55    3.13
   2   1 -10   56.07    3.35
  -2  -1   9  431.06    5.10
  -2  -1   9  472.35    7.57
  -2  -1   9  488.88    5.68
   2   1  -9  453.05    7.72
   2   1  -9  488.08    7.94
   2   1  -9  462.74    7.57
   2   1  -9  501.33    7.94
   2   1  -8  321.40    6.12
   2   1  -8  345.51    6.33
   2   1  -8  333.42    6.19
   2   1  -8  356.21    6.33
   2   1  -7  439.95    6.48
   2   1  -7  460.26    6.84
   2   1  -7  443.15    6.77
   2   1  -7  481.52    6.84
  -2  -1   6   43.40    1.38
  -2  -1   6   52.35    1.82
   2   1  -6   46.60    2.18
   2   1  -6   50.68    2.40
   2   1  -6   46.82    2.26
  -2  -1   5  656.64    7.14
  -2  -1   5  669.10    5.83
   2   1  -5  600.14    6.12
   2   1  -5  671.57    7.28
   2   1  -5  616.60    7.21
   2   1  -5  623.22    6.70
  -2  -1   4   36.84    1.75
  -2  -1   4   35.46    1.46
   2   1  -4   32.55    1.53
   2   1  -4   38.23    1.89
   2   1  -4   33.86    1.89
   2   1  -4   33.20    1.75
  -2  -1   3 1341.03    6.63
  -2  -1   3 1513.97   12.82
  -2  -1   3 1447.56    8.16
   2   1  -3 1362.00    6.70
   2   1  -3 1329.38    9.47
   2   1  -3 1406.64    8.74
  -2  -1   2  563.37    5.10
   2   1  -2  512.47    4.51
   2   1  -2  504.24    5.53
   2   1  -2  521.79    5.10
  -2  -1   1 5410.87   36.26
   2   1  -1 5008.20   31.16
   2   1  -1 5076.28   34.30
  -2  -1   0 2086.87   12.31
   2   1   0 1977.43   15.51
   2   1   0 1915.32    9.25
   2   1   0 2173.38   14.05
   2   1   0 1770.27   11.50
  -2  -1  -1 4199.37   31.16
  -2  -1  -1 4007.58   21.04
  -2  -1  -1 4254.86   26.21
  -2  -1  -1 4185.98   27.16
   2   1   1 3982.53   31.75
   2   1   1 3921.30   26.29
   2   1   1 4286.32   26.29
   2   1   1 3804.14   25.78
  -2  -1  -2 3587.66   26.21
  -2  -1  -2 3562.83   24.32
  -2  -1  -2 4100.78   27.67
  -2  -1  -2 3763.51   24.76
   2   1   2 3608.48   31.75
   2   1   2 3576.44   22.94
   2   1   2 3832.90   26.14
   2   1   2    0.00    0.07
  -2  -1  -3  296.36    4.00
  -2  -1  -3  327.96    3.64
  -2  -1  -3  302.84    3.50
   2   1   3  293.37    4.51
   2   1   3  299.85    2.69
  -2  -1  -4 1748.36   11.14
  -2  -1  -4 1688.28   10.63
  -2  -1  -4 1911.83    9.76
  -2  -1  -4 1815.42   11.14
   2   1   4 1750.83   11.50
  -2  -1  -5 1987.19   12.52
  -2  -1  -5 1943.86   12.60
  -2  -1  -5 2182.19    8.96
  -2  -1  -5 2101.36   10.92
   2   1   5 1995.56   12.96
  -2  -1  -6   97.43    3.13
  -2  -1  -6   98.15    3.35
   2   1   6  106.31    3.35
  -2  -1  -7  607.28    7.65
  -2  -1  -7  598.39    8.30
   2   1   7  614.99    8.08
  -2  -1  -8   24.25    2.04
  -2  -1  -8   25.12    2.40
   2   1   8   24.76    2.11
  -2  -1  -9   77.69    3.28
  -2  -1  -9   73.11    3.71
  -2  -1  -9   73.25    3.50
   2   1   9   82.86    3.50
  -2  -1 -10  248.59    6.70
  -2  -1 -10  254.12    6.26
   2   1  10  274.80    6.33
  -2  -1 -11   61.67    4.00
  -2  -1 -11   60.51    3.71
   2   1  11   61.24    3.50
  -2  -1 -12  369.68    9.03
  -2  -1 -12  368.15    8.30
   2   1  12  395.09    8.16
  -2  -1 -13   60.87    4.66
  -2  -1 -13   52.21    3.93
   2   1  13   59.49    3.86
  -2  -1 -14  166.09    7.06
  -2  -1 -14  166.75    6.41
   2   1  14  169.73    6.04
  -2  -1 -15    4.95    2.62
  -2  -1 -15    5.02    2.26
  -2  -1 -16   51.63    5.46
  -2  -1 -16   44.34    4.51
   2   1  16   49.15    5.10
  -2  -1 -17    2.91    2.77
   2   1  17    1.97    2.55
  -1  -1  18   21.04    4.00
   1   1 -18   24.61    4.37
  -1  -1  17   90.44    6.19
   1   1 -17   96.48    6.70
  -1  -1  16  101.65    6.19
   1   1 -16  102.96    6.55
   1   1 -16   99.17    5.97
  -1  -1  15   39.47    4.30
   1   1 -15   50.39    4.95
   1   1 -15   44.56    4.37
  -1  -1  14   11.14    2.62
   1   1 -14   11.36    2.84
   1   1 -14   10.41    2.62
  -1  -1  13   63.28    4.30
   1   1 -13   59.85    4.59
   1   1 -13   64.37    4.30
  -1  -1  12   94.80    3.79
  -1  -1  12   96.19    4.66
   1   1 -12   95.17    4.95
   1   1 -12  101.50    4.73
   1   1 -12  104.42    4.08
  -1  -1  11    6.55    1.46
  -1  -1  11    7.94    1.82
   1   1 -11    4.88    1.89
   1   1 -11    7.21    1.89
   1   1 -11    7.65    1.67
  -1  -1  10   87.52    3.64
  -1  -1  10   89.42    2.69
   1   1 -10   78.35    3.86
   1   1 -10   90.36    3.93
   1   1 -10   87.74    3.42
  -1  -1   9  308.52    6.04
  -1  -1   9  325.41    4.59
   1   1  -9  306.77    6.48
   1   1  -9  315.80    6.33
   1   1  -9  313.18    5.68
   1   1  -9  309.97    6.12
  -1  -1   8   24.17    1.89
  -1  -1   8   26.50    1.46
   1   1  -8   20.83    2.18
   1   1  -8   22.50    2.11
   1   1  -8   24.61    1.97
   1   1  -8   24.98    2.04
  -1  -1   7  239.27    4.59
  -1  -1   7  242.55    3.42
   1   1  -7  224.56    4.81
   1   1  -7  242.91    4.88
   1   1  -7  223.47    4.44
   1   1  -7  249.97    4.73
  -1  -1   6 1530.57    7.65
   1   1  -6 1449.45   10.85
   1   1  -6 1552.27   11.29
   1   1  -6 1433.21   10.27
   1   1  -6 1621.29   10.85
   1   1  -5  428.01    5.39
   1   1  -5  462.96    5.75
   1   1  -5  449.19    5.46
   1   1  -5  487.06    5.46
  -1  -1   4   79.08    1.60
   1   1  -4   83.74    2.26
   1   1  -4   94.66    2.55
   1   1  -4   81.12    2.33
   1   1  -4   94.80    2.33
  -1  -1   3 9047.46   44.42
  -1  -1   3 9025.25   31.53
   1   1  -3 9465.41   45.00
   1   1  -3 9999.00   55.27
   1   1  -3 9162.94   51.77
   1   1  -3 9783.69   49.51
  -1  -1   2 7237.86   31.82
  -1  -1   2 7944.39   46.24
   1   1  -2 7841.86   45.58
   1   1  -2 7027.94   40.56
   1   1  -2 7238.45   39.03
  -1  -1   1 1269.38    9.17
   1   1  -1 1167.44    5.24
   1   1  -1 1288.24    7.79
   1   1  -1 1116.69    6.41
  -1  -1   0  815.02    5.17
   1   1   0  772.06    4.73
   1   1   0  752.83    4.73
   1   1   0  825.21    6.99
   1   1   0  685.84    6.04
  -1  -1  -1  800.23    5.39
  -1  -1  -1  806.79    5.53
  -1  -1  -1   -0.07    0.07
  -1  -1  -1  761.64    4.37
   1   1   1  791.72    5.39
   1   1   1  752.32    4.22
   1   1   1  848.00    4.59
   1   1   1  349.07    2.91
  -1  -1  -2   59.20    1.75
  -1  -1  -2   61.97    1.60
  -1  -1  -2   68.45    1.38
  -1  -1  -2   66.84    1.38
   1   1   2   65.39    1.82
   1   1   2   60.51    1.09
   1   1   2   65.82    1.82
   1   1   2   61.60    2.11
  -1  -1  -3  352.86    4.08
  -1  -1  -3  365.31    4.30
  -1  -1  -3  405.29    3.06
  -1  -1  -3  377.47    2.91
   1   1   3  383.59    4.51
  -1  -1  -4 2075.15   15.29
  -1  -1  -4 2052.50   14.85
   1   1   4 2244.81   19.81
  -1  -1  -5  135.87    2.99
  -1  -1  -5  136.24    3.42
   1   1   5  140.90    3.28
  -1  -1  -6  183.57    3.64
  -1  -1  -6  182.84    4.30
   1   1   6  191.36    4.08
  -1  -1  -7  346.60    5.24
  -1  -1  -7  335.75    6.19
  -1  -1  -7  319.51    5.53
   1   1   7  358.83    5.83
  -1  -1  -8   87.60    2.91
  -1  -1  -8   79.37    3.50
  -1  -1  -8   75.73    3.06
   1   1   8   87.16    3.20
  -1  -1  -9  183.13    5.39
  -1  -1  -9  180.87    4.81
   1   1   9  199.88    4.95
  -1  -1 -10  139.95    5.10
  -1  -1 -10  142.13    4.59
   1   1  10  156.55    4.66
  -1  -1 -11   13.03    2.40
  -1  -1 -11   14.78    2.18
   1   1  11   17.77    2.26
  -1  -1 -12   88.47    4.88
  -1  -1 -12  102.81    4.59
   1   1  12  101.72    4.30
  -1  -1 -13   63.86    4.59
  -1  -1 -13   62.04    4.00
   1   1  13   58.32    3.64
  -1  -1 -14   45.22    4.51
  -1  -1 -14   47.77    3.93
  -1  -1 -15   99.68    6.12
  -1  -1 -15  106.75    5.53
  -1  -1 -16  218.30    8.74
  -1  -1 -17  127.64    7.65
   1   1  17  117.52    7.14
   0  -1  18    5.32    3.50
   0   1 -18   10.19    3.93
   0  -1  17   97.72    6.48
   0   1 -17  105.58    6.99
   0  -1  16   70.85    5.53
   0   1 -16   69.32    5.75
   0   1 -16   76.60    5.46
   0  -1  15   31.09    4.15
   0   1 -15   27.52    4.00
   0   1 -15   26.43    3.64
   0  -1  14  232.64    7.86
   0   1 -14  239.56    8.16
   0   1 -14  258.93    7.72
   0  -1  13   92.26    4.95
   0   1 -13   91.75    5.17
   0   1 -13   97.64    4.95
   0  -1  12   51.55    3.71
   0   1 -12   44.49    3.86
   0   1 -12   60.65    3.93
   0  -1  11  151.09    3.93
   0  -1  11  157.64    4.95
   0  -1  11  142.21    5.17
   0   1 -11  150.95    5.46
   0   1 -11  156.99    5.32
   0   1 -11  152.40    4.08
   0  -1  10   86.94    2.77
   0   1 -10   77.91    4.00
   0   1 -10   82.79    3.79
   0   1 -10   84.47    2.99
   0  -1   9  254.49    4.22
   0   1  -9  227.25    5.75
   0   1  -9  227.98    5.46
   0   1  -9  252.08    4.59
   0  -1   8 1563.33    9.47
   0   1  -8 1458.33   13.11
   0   1  -8 1446.32   12.45
   0   1  -8 1549.50   10.49
   0  -1   7  335.24    5.24
   0  -1   7  344.85    4.08
   0   1  -7  303.71    5.68
   0   1  -7  307.35    5.46
   0   1  -7  312.01    4.51
   0  -1   6  374.92    5.10
   0  -1   6  381.26    3.86
   0   1  -6  360.14    5.61
   0   1  -6  363.78    5.53
   0   1  -6  364.44    4.59
   0  -1   5  132.16    2.77
   0  -1   5  138.64    2.11
   0   1  -5  130.99    3.20
   0   1  -5  126.92    3.06
   0   1  -5  134.34    2.69
   0   1  -5  134.42    2.84
   0  -1   4 2734.78   19.37
   0  -1   4 2859.58   14.93
   0   1  -4 2591.55   14.71
   0   1  -4 2587.11   16.67
   0   1  -4 2531.19   16.16
   0   1  -4 2851.57   18.64
   0  -1   3 5616.13   19.88
   0  -1   3 4969.39   32.69
   0  -1   3 4848.30   28.62
   0   1  -3 5177.71   32.55
   0   1  -3 5355.60   36.55
   0   1  -3 5035.58   31.67
   0   1  -3 5800.50   30.07
   0  -1   2 3262.32   22.28
   0  -1   2 3238.51   18.57
   0   1  -2 3352.47   22.57
   0   1  -2 3405.40   22.86
   0   1  -2 3211.50   20.17
   0   1  -2 3579.79   18.20
   0  -1   1 2278.81   13.54
   0   1  -1 2427.79   16.60
   0   1  -1 2273.79   16.09
   0   1  -1 2317.19   11.00
   0  -1   0 2590.68   15.66
   0  -1   0 2617.98   17.33
   0  -1   0 2505.70   13.33
   0  -1   0 2590.02   14.20
   0   1   0 2539.05   14.64
   0   1   0 2549.46   13.25
   0   1   0 2554.27   13.98
   0  -1  -1  277.79    2.33
   0  -1  -1  290.75    2.04
   0  -1  -1  269.27    1.97
   0   1   1  278.59    2.33
   0   1   1  280.70    2.62
   0   1   1  282.74    2.04
   0   1   1  269.49    2.04
   0  -1  -2 2053.45   14.49
   0  -1  -2 2021.85   16.24
   0  -1  -2 2188.52    9.90
   0  -1  -2 2058.33    9.90
   0   1   2 2038.81   12.89
   0   1   2 2078.28   17.04
   0  -1  -3  229.08    2.62
   0  -1  -3  229.44    3.35
   0   1   3  240.80    3.28
   0  -1  -4 1090.77    6.19
   0  -1  -4 1091.71    8.16
   0   1   4 1135.91    7.65
   0  -1  -5  548.30    4.88
   0  -1  -5  547.57    6.48
   0  -1  -5  543.78    5.53
   0   1   5  574.65    5.97
   0  -1  -6 1017.00    7.14
   0  -1  -6  986.28    9.47
   0  -1  -6  941.35    8.01
   0   1   6 1037.32    8.59
   0  -1  -7   19.51    1.89
   0  -1  -7   19.81    1.60
   0   1   7   20.02    1.60
   0  -1  -8  242.62    5.61
   0  -1  -8  243.86    4.88
   0   1   8  256.53    4.95
   0  -1  -9  227.18    5.83
   0  -1  -9  234.61    5.17
   0   1   9  246.33    5.17
   0  -1 -10  359.05    7.72
   0  -1 -10  346.38    6.63
   0   1  10  383.15    6.70
   0  -1 -11   38.74    3.35
   0  -1 -11   37.35    2.84
   0   1  11   36.55    2.62
   0  -1 -12  385.04    9.03
   0  -1 -12  373.25    7.79
   0   1  12  403.83    7.57
   0  -1 -13  106.46    5.53
   0  -1 -13  105.22    4.73
   0   1  13  112.94    4.51
   0  -1 -14  232.21    8.01
   0  -1 -14  234.10    6.99
   0  -1 -15  220.41    8.30
   0  -1 -15  212.47    7.28
   0  -1 -16   12.52    3.35
   0  -1 -17    8.45    3.35
   0   1  17    5.46    2.91
   1  -1  17    3.86    2.77
  -1   1 -17    4.81    2.91
  -1   1 -17    3.57    2.77
   1  -1  16   14.20    3.35
   1  -1  16   12.74    2.69
  -1   1 -16   12.45    3.28
  -1   1 -16   11.00    2.99
   1  -1  15  201.92    7.86
   1  -1  15  184.51    6.63
  -1   1 -15  197.47    7.94
  -1   1 -15  214.15    7.50
   1  -1  14  232.28    7.94
  -1   1 -14  230.82    8.01
  -1   1 -14  237.38    7.50
   1  -1  13  111.63    5.39
  -1   1 -13  109.44    5.61
  -1   1 -13  102.89    5.10
   1  -1  12  363.05    8.66
  -1   1 -12  374.20    8.88
  -1   1 -12  382.06    8.37
   1  -1  11   34.15    2.18
   1  -1  11   29.34    2.91
  -1   1 -11   32.69    3.20
  -1   1 -11   30.66    2.99
   1  -1  10  353.52    4.88
   1  -1  10  375.80    5.75
  -1   1 -10  348.13    7.57
  -1   1 -10  354.46    7.28
  -1   1 -10  365.02    4.95
   1  -1   9  246.26    4.44
  -1   1  -9  235.63    5.90
  -1   1  -9  229.00    5.61
  -1   1  -9  245.75    3.93
   1  -1   8  241.67    4.08
  -1   1  -8  229.88    5.46
  -1   1  -8  229.95    5.24
  -1   1  -8  244.88    3.71
   1  -1   7   19.81    1.31
  -1   1  -7   18.93    1.89
  -1   1  -7   17.84    1.82
  -1   1  -7   20.53    1.24
   1  -1   6 1036.96    7.06
  -1   1  -6  976.88    9.39
  -1   1  -6 1004.33    9.17
  -1   1  -6  988.97    6.26
   1  -1   5  557.83    4.73
  -1   1  -5  521.35    6.26
  -1   1  -5  516.55    6.12
  -1   1  -5  539.27    4.30
   1  -1   4 1140.94    7.43
   1  -1   4 1067.97    8.01
  -1   1  -4 1062.59    8.01
  -1   1  -4 1025.38    7.79
  -1   1  -4 1107.00    5.53
   1  -1   3  241.75    2.40
   1  -1   3  235.19    3.42
  -1   1  -3  234.90    3.42
  -1   1  -3  234.97    3.35
  -1   1  -3  247.28    2.40
   1  -1   2 1963.45   12.96
   1  -1   2 1945.61   18.28
   1  -1   2 1861.07   16.09
  -1   1  -2 2107.77   11.21
  -1   1  -2 2017.12   18.71
  -1   1  -2 1933.01   15.58
   1  -1   1  261.26    2.48
  -1   1  -1  291.11    2.33
  -1   1  -1  269.41    2.48
  -1   1  -1  318.64    1.89
  -1   1  -1  270.07    1.75
   1  -1   0 2360.73   15.73
   1  -1   0 2246.05   13.03
   1  -1   0 2279.90   13.47
  -1   1   0 2375.80   15.80
  -1   1   0 2247.28   10.63
  -1   1   0 2243.06   14.56
  -1   1   0 2543.28   13.40
  -1   1   0  784.43    7.06
   1  -1  -1 2472.50   16.60
   1  -1  -1 2418.25   16.53
  -1   1   1 2377.84   14.71
   1  -1  -2 3537.05   23.23
   1  -1  -2 3297.27   14.71
   1  -1  -2 3620.13   26.14
  -1   1   2 3509.96   19.88
  -1   1   2 3405.40   14.13
   1  -1  -3 5204.87   17.26
   1  -1  -3 5233.71   35.46
   1  -1  -3 5325.02   26.29
   1  -1  -3 5765.84   38.88
  -1   1   3 5494.24   26.72
  -1   1   3 5492.35   17.55
   1  -1  -4 2842.62   19.51
   1  -1  -4 2646.38   17.40
   1  -1  -4 2863.15   21.84
  -1   1   4 2752.91   26.14
   1  -1  -5  123.93    3.13
   1  -1  -5  121.02    2.55
   1  -1  -5  133.69    3.28
  -1   1   5  122.40    3.06
  -1   1   5  133.69    2.91
   1  -1  -6  339.90    5.53
   1  -1  -6  323.01    4.51
   1  -1  -6  354.83    5.61
  -1   1   6  353.15    5.53
  -1   1   6  360.21    4.95
   1  -1  -7  316.09    5.83
   1  -1  -7  315.72    4.88
   1  -1  -7  337.21    5.90
  -1   1   7  336.70    5.90
  -1   1   7  343.54    5.17
   1  -1  -8 1437.36   13.11
   1  -1  -8 1461.17   11.21
  -1   1   8 1526.34   13.18
  -1   1   8 1535.96   11.58
   1  -1  -9  223.10    5.75
   1  -1  -9  229.22    4.95
  -1   1   9  234.61    5.68
  -1   1   9  249.03    5.02
   1  -1 -10   75.65    3.86
   1  -1 -10   77.98    3.35
  -1   1  10   81.63    3.20
   1  -1 -11  146.36    5.46
   1  -1 -11  148.18    4.66
  -1   1  11  154.51    4.51
   1  -1 -12   53.88    4.00
   1  -1 -12   52.35    3.42
  -1   1  12   53.88    3.13
   1  -1 -13   89.85    5.10
   1  -1 -13   98.15    4.51
  -1   1  13   98.30    5.46
   1  -1 -14  243.93    8.16
   1  -1 -14  256.45    7.14
   1  -1 -15   27.45    4.00
   1  -1 -16   79.08    5.97
   1  -1 -17  103.69    6.92
  -1   1  17   93.64    6.33
   1  -1 -18    9.32    5.83
  -1   1  18    8.59    3.86
  -2   1 -18   25.70    4.66
   2  -1  17   96.55    6.70
   2  -1  17   82.64    5.46
  -2   1 -17   92.84    6.92
  -2   1 -17   97.86    6.26
   2  -1  16  102.74    6.48
   2  -1  16   95.82    5.53
  -2   1 -16  103.18    6.77
  -2   1 -16  102.89    6.12
   2  -1  15   36.12    4.30
   2  -1  15   44.27    3.93
  -2   1 -15   50.24    5.02
  -2   1 -15   41.65    4.37
   2  -1  14   16.82    3.20
  -2   1 -14   12.67    3.06
  -2   1 -14   14.93    2.84
   2  -1  13   61.97    4.44
  -2   1 -13   64.73    4.73
  -2   1 -13   61.16    4.30
   2  -1  12   99.10    4.30
   2  -1  12   88.69    4.73
  -2   1 -12   89.64    4.88
  -2   1 -12   88.40    4.59
   2  -1  11    6.19    1.38
   2  -1  11    6.48    1.82
  -2   1 -11    6.77    1.97
  -2   1 -11    5.10    1.82
   2  -1  10   86.50    3.20
   2  -1  10   75.00    3.79
  -2   1 -10   80.53    4.08
  -2   1 -10   82.06    3.93
   2  -1   9  305.60    5.32
   2  -1   9  288.78    6.55
  -2   1  -9  292.57    6.70
  -2   1  -9  291.91    6.41
  -2   1  -9  313.39    3.42
   2  -1   8   24.17    1.75
   2  -1   8   23.81    2.11
  -2   1  -8   21.12    2.26
  -2   1  -8   23.01    2.26
  -2   1  -8   22.43    1.09
   2  -1   7  240.07    4.22
   2  -1   7  228.49    5.10
  -2   1  -7  224.27    5.10
  -2   1  -7  218.23    4.95
  -2   1  -7  236.21    2.62
   2  -1   6 1478.65    9.61
   2  -1   6 1397.75   11.50
  -2   1  -6 1421.85   11.58
  -2   1  -6 1366.95   11.21
  -2   1  -6 1433.07    5.90
   2  -1   5  448.61    5.02
   2  -1   5  436.45    5.97
  -2   1  -5  436.23    5.97
  -2   1  -5  435.43    5.90
  -2   1  -5  449.27    3.13
   2  -1   4   88.98    2.18
   2  -1   4   84.54    2.48
  -2   1  -4   88.25    1.67
  -2   1  -4   86.21    2.55
  -2   1  -4   78.86    2.48
  -2   1  -3 9806.04   40.99
  -2   1  -3 9143.21   53.96
   2  -1   2 7124.42   42.52
   2  -1   2 6967.50   42.67
  -2   1  -2 7506.26   36.99
  -2   1  -2 7513.83   44.13
  -2   1  -2 7657.35   34.51
   2  -1   1 1123.90    6.19
   2  -1   1 1113.92    6.19
   2  -1   1  254.56    2.55
   2  -1   1 1093.31    9.03
  -2   1  -1 1168.24    6.12
  -2   1  -1 1195.62    6.55
  -2   1  -1 1266.98    5.53
  -2   1  -1 1126.23    8.16
   2  -1   0  760.55    4.51
   2  -1   0  827.83    4.08
   2  -1   0  731.42    3.79
  -2   1   0  768.49    5.10
  -2   1   0  780.79    4.66
  -2   1   0  790.84    4.15
  -2   1   0  733.24    3.93
   2  -1  -1  784.80    4.22
   2  -1  -1  750.79    5.24
  -2   1   1  747.30    5.17
  -2   1   1  764.41    3.93
   2  -1  -2   61.60    1.31
   2  -1  -2   58.98    1.82
  -2   1   2   56.36    1.60
  -2   1   2   57.96    0.95
   2  -1  -3  377.69    4.08
   2  -1  -3  399.97    3.28
   2  -1  -3  381.84    4.59
  -2   1   3  360.43    4.30
  -2   1   3  355.41    3.79
  -2   1   3  401.86    3.28
   2  -1  -4 2162.09   11.00
   2  -1  -4 2349.95   15.29
   2  -1  -4 2256.17   18.28
  -2   1   4 2120.51   11.00
  -2   1   4 2112.21    9.17
   2  -1  -5  134.42    3.20
   2  -1  -5  147.60    2.69
   2  -1  -5  143.88    3.50
  -2   1   5  139.51    3.13
  -2   1   5  139.73    2.48
   2  -1  -6  192.45    4.22
   2  -1  -6  201.33    3.50
   2  -1  -6  208.54    4.51
  -2   1   6  187.79    3.79
  -2   1   6  196.16    2.91
   2  -1  -7  326.06    5.83
   2  -1  -7  331.96    4.95
   2  -1  -7  353.66    6.19
  -2   1   7  327.67    5.17
  -2   1   7  341.21    3.86
  -2   1   7  335.24    5.97
   2  -1  -8   80.61    3.42
   2  -1  -8   87.09    2.91
   2  -1  -8   88.83    3.57
  -2   1   8   83.52    2.91
  -2   1   8   88.54    3.50
  -2   1   8   87.74    2.91
   2  -1  -9  189.03    5.24
   2  -1  -9  198.71    4.59
   2  -1  -9  192.09    5.32
  -2   1   9  194.78    5.24
  -2   1   9  200.31    4.51
   2  -1 -10  147.89    5.10
   2  -1 -10  158.95    4.44
   2  -1 -10  162.81    5.32
  -2   1  10  156.55    5.02
  -2   1  10  162.89    4.30
   2  -1 -11   19.00    2.69
   2  -1 -11   20.46    2.40
  -2   1  11   19.88    2.62
  -2   1  11   19.22    2.04
   2  -1 -12   92.69    4.88
   2  -1 -12  110.24    4.44
  -2   1  12  100.63    4.73
  -2   1  12  103.32    3.93
   2  -1 -13   55.99    4.37
   2  -1 -13   64.08    3.93
   2  -1 -14   55.12    4.73
   2  -1 -15   96.92    5.90
   2  -1 -16  203.52    8.37
   2  -1 -17  134.71    7.50
   2  -1 -18   46.97    6.26
  -2   1  18   49.08    5.53
   3  -1  18   11.43    3.06
  -3   1 -18   14.85    3.64
   3  -1  17   81.55    6.33
   3  -1  17   77.26    5.53
  -3   1 -17   89.56    6.84
  -3   1 -17   88.69    6.19
   3  -1  16   17.62    3.57
   3  -1  16   11.14    2.69
  -3   1 -16   20.68    3.93
  -3   1 -16   15.00    3.28
   3  -1  15   42.09    4.66
   3  -1  15   36.84    3.93
  -3   1 -15   42.16    4.81
  -3   1 -15   42.67    4.44
   3  -1  14  146.50    6.70
  -3   1 -14  135.73    6.63
  -3   1 -14  126.99    6.12
   3  -1  13  207.89    7.35
  -3   1 -13  209.63    7.43
  -3   1 -13  220.19    7.21
   3  -1  12  103.47    4.08
   3  -1  12   99.61    5.10
  -3   1 -12  101.80    5.24
  -3   1 -12   99.39    5.02
   3  -1  11   39.10    2.69
   3  -1  11   34.30    3.20
  -3   1 -11   35.82    3.42
  -3   1 -11   34.15    3.28
   3  -1  10   13.33    1.82
   3  -1  10   10.49    2.04
  -3   1 -10   12.23    2.18
  -3   1 -10   14.71    2.33
   3  -1   9  600.94    8.01
   3  -1   9  576.33    9.39
  -3   1  -9  564.02    9.32
  -3   1  -9  545.60    9.03
   3  -1   8   61.16    2.69
   3  -1   8   59.85    3.13
  -3   1  -8   59.49    3.13
  -3   1  -8   56.14    3.06
   3  -1   7  161.72    3.93
   3  -1   7  154.80    4.37
  -3   1  -7  157.21    4.44
  -3   1  -7  155.24    4.44
   3  -1   6   96.55    2.91
   3  -1   6   94.15    3.28
  -3   1  -6   94.59    2.11
  -3   1  -6   89.64    3.20
   3  -1   5   38.30    1.89
   3  -1   5   35.75    2.04
  -3   1  -5   38.15    1.53
  -3   1  -5   35.02    2.11
  -3   1  -5   34.22    2.04
   3  -1   4   25.34    1.53
   3  -1   4   25.56    1.60
  -3   1  -4   24.39    1.31
  -3   1  -4   24.54    1.75
  -3   1  -4   26.50    1.67
  -3   1  -4   26.65    1.02
  -3   1  -4   27.74    1.09
   3  -1   3 1784.47   13.76
   3  -1   3 1729.35    9.90
  -3   1  -3 1792.70    9.17
  -3   1  -3 1791.46   11.00
  -3   1  -3 1792.55   10.12
  -3   1  -3 1929.66   14.42
  -3   1  -3 1870.10   11.14
   3  -1   2 3532.68   26.43
   3  -1   2 3446.11   25.92
   3  -1   2 4044.13   24.83
   3  -1   2 3418.14   24.03
  -3   1  -2 3533.99   20.46
  -3   1  -2 3605.06   24.32
  -3   1  -2 3927.70   23.74
  -3   1  -2 3795.62   24.61
   3  -1   1  138.57    2.84
   3  -1   1  142.50    2.69
   3  -1   1  158.08    2.48
   3  -1   1  136.38    2.26
  -3   1  -1  133.83    2.77
  -3   1  -1  149.93    2.91
  -3   1  -1  157.94    2.48
  -3   1  -1    0.44    0.22
   3  -1   0 2003.64   13.11
   3  -1   0 2156.19   12.09
   3  -1   0 2077.70   14.85
  -3   1   0 1891.87   12.23
  -3   1   0 2093.13   11.29
   3  -1  -1 1514.69    9.03
   3  -1  -1 1478.36    8.96
   3  -1  -1 1534.79    6.63
   3  -1  -1 1550.52    8.81
  -3   1   1 1443.19    8.74
  -3   1   1 1356.54    8.52
  -3   1   1 1474.28    7.35
   3  -1  -2  635.09    4.15
   3  -1  -2  585.21    5.97
  -3   1   2  560.89    5.83
  -3   1   2  549.31    5.53
  -3   1   2  571.89    4.15
   3  -1  -3  835.26    4.81
   3  -1  -3  795.65    5.83
   3  -1  -3  774.68    7.21
   3  -1  -3  787.20    7.35
  -3   1   3  734.99    7.06
  -3   1   3  711.69    6.41
  -3   1   3  758.58    4.22
   3  -1  -4  493.90    5.24
   3  -1  -4  518.44    6.26
   3  -1  -4  529.29    6.41
  -3   1   4  484.51    6.04
  -3   1   4  478.17    5.39
   3  -1  -5 2185.61   12.16
   3  -1  -5 2469.59   15.51
   3  -1  -5 2235.41   13.54
   3  -1  -5 2332.77   14.27
  -3   1   5 2188.16   13.40
  -3   1   5 2204.25   11.50
  -3   1   5 2421.75   15.36
   3  -1  -6  235.19    4.51
   3  -1  -6  249.61    4.00
   3  -1  -6  239.20    5.02
  -3   1   6  234.83    4.73
  -3   1   6  230.39    3.86
  -3   1   6  248.37    4.00
   3  -1  -7  249.17    5.10
   3  -1  -7  262.79    4.51
   3  -1  -7  254.85    5.17
   3  -1  -7  275.39    5.68
  -3   1   7  246.77    5.02
  -3   1   7  249.39    4.08
   3  -1  -8  654.75    8.74
   3  -1  -8  709.51    7.79
   3  -1  -8  733.32    9.68
  -3   1   8  662.69    8.52
  -3   1   8  685.48    6.63
   3  -1  -9  357.96    7.06
   3  -1  -9  388.69    6.26
   3  -1  -9  400.63    7.65
  -3   1   9  352.71    6.55
  -3   1   9  363.05    7.21
   3  -1 -10  387.16    7.79
   3  -1 -10  420.58    6.92
   3  -1 -10  416.50    8.30
  -3   1  10  404.78    8.08
  -3   1  10  404.85    6.70
   3  -1 -11  340.99    7.79
   3  -1 -11  367.93    6.92
   3  -1 -11  367.93    8.30
  -3   1  11  352.93    8.01
  -3   1  11  361.09    6.63
   3  -1 -12   40.19    3.64
   3  -1 -12   46.16    3.28
   3  -1 -12   44.56    3.86
  -3   1  12   42.82    3.50
  -3   1  12   44.85    2.99
   3  -1 -13    8.88    2.48
  -3   1  13    8.23    2.33
   3  -1 -14   40.05    4.22
  -3   1  14   47.62    4.08
   3  -1 -15   29.13    4.00
   3  -1 -16   45.07    4.95
   3  -1 -17   61.82    5.90
  -3   1  17   54.39    5.32
   3  -1 -18   38.66    5.17
  -3   1  18   50.39    5.53
   4  -1  17    0.95    2.69
   4  -1  17    3.13    2.33
  -4   1 -17    2.33    2.77
  -4   1 -17   -2.26    2.33
   4  -1  16   21.19    3.86
   4  -1  16   18.79    3.42
  -4   1 -16   22.43    4.08
  -4   1 -16   16.53    3.57
   4  -1  15   18.28    3.64
   4  -1  15   18.64    3.28
  -4   1 -15   22.50    3.93
  -4   1 -15   20.83    3.57
   4  -1  14   33.42    4.15
  -4   1 -14   36.55    4.44
  -4   1 -14   35.10    4.22
   4  -1  13   28.11    3.86
  -4   1 -13   32.69    4.15
  -4   1 -13   25.41    3.57
   4  -1  12   99.10    4.37
   4  -1  12   97.64    5.10
  -4   1 -12   96.55    5.24
  -4   1 -12  102.45    5.24
   4  -1  11   37.72    2.91
   4  -1  11   34.00    3.35
  -4   1 -11   37.72    3.57
  -4   1 -11   33.64    3.42
   4  -1  10   99.25    4.00
   4  -1  10   97.94    4.59
  -4   1 -10   86.29    4.37
  -4   1 -10   93.79    4.51
   4  -1   9  164.12    4.73
   4  -1   9  154.66    5.17
  -4   1  -9  159.83    5.32
  -4   1  -9  155.17    5.24
   4  -1   8  244.00    5.46
   4  -1   8  244.80    5.97
  -4   1  -8  245.90    6.04
  -4   1  -8  235.19    6.04
   4  -1   7  537.59    7.65
   4  -1   7  533.08    8.16
  -4   1  -7  565.77    5.75
  -4   1  -7  523.90    8.08
   4  -1   6 1395.06   11.80
   4  -1   6 1333.60   11.87
  -4   1  -6 1380.42    9.17
  -4   1  -6 1400.59   12.52
  -4   1  -6 1329.67   11.87
  -4   1  -6 1554.09    6.48
  -4   1  -6 1491.47    6.33
   4  -1   5 3237.13   24.83
   4  -1   5 3217.32   28.25
  -4   1  -5 3320.65   17.18
  -4   1  -5 3286.20   23.23
  -4   1  -5 3212.59   24.98
  -4   1  -5 3587.37   21.33
  -4   1  -5 3572.59   17.04
   4  -1   4  567.74    7.06
   4  -1   4  564.75    6.63
  -4   1  -4  564.17    6.12
  -4   1  -4  592.13    7.50
  -4   1  -4  577.57    6.70
  -4   1  -4  639.46    5.68
  -4   1  -4  588.42    5.46
   4  -1   3 2859.80   15.15
   4  -1   3 3325.67   17.77
   4  -1   3 2967.64   21.55
  -4   1  -3 2783.56   13.62
  -4   1  -3 3050.36   16.09
  -4   1  -3 3182.22   21.63
  -4   1  -3 3177.71   18.49
   4  -1   2  300.29    4.88
   4  -1   2  294.97    4.59
   4  -1   2  368.30    4.44
   4  -1   2  300.00    4.00
  -4   1  -2  277.21    4.44
  -4   1  -2  309.68    4.95
  -4   1  -2  322.93    4.15
  -4   1  -2  315.65    4.08
   4  -1   1 1139.26    9.17
   4  -1   1 1143.27    8.16
   4  -1   1 1238.80    7.50
   4  -1   1 1107.37    7.06
  -4   1  -1 1114.65    8.88
  -4   1  -1 1199.48    9.17
  -4   1  -1 1266.03    7.86
  -4   1  -1 1122.44    7.43
   4  -1   0  317.25    4.88
   4  -1   0  321.70    4.00
   4  -1   0  331.38    3.50
   4  -1   0  311.50    3.35
  -4   1   0  325.92    4.59
  -4   1   0  327.38    4.59
   4  -1  -1  483.93    4.44
   4  -1  -1  503.95    2.99
   4  -1  -1  509.78    2.99
  -4   1   1  487.93    5.90
  -4   1   1  448.03    5.83
  -4   1   1  488.37    5.24
   4  -1  -2  120.65    2.11
   4  -1  -2  127.72    3.35
   4  -1  -2  122.55    3.28
  -4   1   2  117.38    3.20
  -4   1   2  121.16    2.55
   4  -1  -3   58.83    1.46
   4  -1  -3   57.09    1.75
   4  -1  -3   54.90    2.48
   4  -1  -3   53.30    2.40
  -4   1   3   55.99    2.48
  -4   1   3   52.57    2.33
  -4   1   3   50.68    1.67
   4  -1  -4 1093.97    7.65
   4  -1  -4 1108.61   10.19
   4  -1  -4 1094.99   10.05
  -4   1   4 1052.90    9.90
  -4   1   4  951.98    8.74
  -4   1   4 1023.70    6.04
   4  -1  -5   27.96    1.67
   4  -1  -5   29.34    2.18
   4  -1  -5   28.76    2.18
  -4   1   5   25.99    2.11
  -4   1   5   27.52    1.89
  -4   1   5   27.74    1.09
   4  -1  -6  127.28    3.35
   4  -1  -6  134.05    4.08
   4  -1  -6  130.78    4.08
  -4   1   6  126.19    3.93
  -4   1   6  122.40    3.35
   4  -1  -7  152.62    4.00
   4  -1  -7  157.28    4.59
   4  -1  -7  165.00    4.81
  -4   1   7  148.54    4.44
  -4   1   7  153.06    3.79
  -4   1   7  164.93    3.71
   4  -1  -8   57.09    2.99
   4  -1  -8   61.89    2.69
   4  -1  -8   59.42    3.20
   4  -1  -8   64.37    3.42
  -4   1   8   60.65    3.20
  -4   1   8   58.11    2.55
  -4   1   8   61.75    2.55
   4  -1  -9  414.02    7.43
   4  -1  -9  457.13    6.92
   4  -1  -9  456.48    8.52
  -4   1   9  410.97    7.65
  -4   1   9  426.99    6.19
  -4   1   9  451.16    6.84
   4  -1 -10    6.99    1.89
   4  -1 -10    6.92    1.60
   4  -1 -10    6.55    2.18
  -4   1  10    7.35    1.82
  -4   1  10    6.92    1.53
   4  -1 -11   38.88    3.42
   4  -1 -11   44.05    2.99
   4  -1 -11   43.32    3.86
  -4   1  11   39.25    3.42
  -4   1  11   46.09    2.84
   4  -1 -12   53.66    4.00
   4  -1 -12   60.44    4.51
  -4   1  12   55.05    4.00
   4  -1 -13   16.89    2.91
   4  -1 -13   18.57    3.20
  -4   1  13   14.05    2.77
   4  -1 -14   56.94    4.73
   4  -1 -14   53.37    4.81
  -4   1  14   57.38    4.51
   4  -1 -15   30.36    4.00
  -4   1  15   34.44    4.30
   4  -1 -16    2.77    2.55
   4  -1 -17   13.76    3.71
  -4   1  17   14.27    3.42
   4  -1 -18    7.79    3.42
  -4   1  18    4.88    2.99
   5  -1  17    2.33    2.48
  -5   1 -17   -0.80    2.40
   5  -1  16    1.46    2.55
   5  -1  16    2.33    2.18
  -5   1 -16    5.39    2.69
   5  -1  15   22.14    3.93
   5  -1  15   22.21    3.64
  -5   1 -15   25.34    4.22
  -5   1 -15   29.05    4.22
   5  -1  14    9.39    2.77
   5  -1  14    7.28    2.55
  -5   1 -14   11.50    3.06
  -5   1 -14    5.75    2.55
   5  -1  13    7.50    2.11
   5  -1  13    6.19    2.33
  -5   1 -13    5.68    2.33
  -5   1 -13    3.64    2.26
   5  -1  12  183.86    6.04
   5  -1  12  179.05    6.77
  -5   1 -12  184.08    6.92
  -5   1 -12  178.40    6.84
   5  -1  11   80.24    4.15
   5  -1  11   74.49    4.44
  -5   1 -11   76.82    4.66
  -5   1 -11   73.76    4.59
   5  -1  10   20.53    2.55
   5  -1  10   17.48    2.69
  -5   1 -10   18.28    2.69
  -5   1 -10   19.44    2.84
   5  -1   9   20.17    2.40
   5  -1   9   21.12    2.69
  -5   1  -9   17.91    2.48
   5  -1   8   32.18    2.62
   5  -1   8   30.29    2.55
  -5   1  -8   32.62    2.04
  -5   1  -8   30.51    2.69
   5  -1   7  148.54    4.59
   5  -1   7  146.65    4.51
  -5   1  -7  152.69    3.71
  -5   1  -7  161.14    5.02
  -5   1  -7  151.60    4.66
  -5   1  -7  174.46    2.55
  -5   1  -7  176.50    2.55
   5  -1   6  179.05    4.81
   5  -1   6  171.92    4.51
  -5   1  -6  181.89    4.08
  -5   1  -6  183.49    5.17
  -5   1  -6  180.94    4.66
  -5   1  -6  199.00    3.35
  -5   1  -6  193.40    3.35
   5  -1   5  747.74    9.25
   5  -1   5  748.61    8.52
  -5   1  -5  759.60    8.08
  -5   1  -5  774.53    9.76
  -5   1  -5  832.20    7.21
  -5   1  -5  804.31    7.14
   5  -1   4   32.91    2.26
   5  -1   4   39.90    1.97
   5  -1   4   36.12    1.82
  -5   1  -4   33.20    2.11
  -5   1  -4   37.79    2.48
  -5   1  -4   39.03    1.75
  -5   1  -4   41.21    1.89
   5  -1   3  569.92    7.65
   5  -1   3  567.88    7.35
   5  -1   3  625.26    6.63
   5  -1   3  562.06    6.26
  -5   1  -3  539.05    6.99
  -5   1  -3  605.53    8.01
  -5   1  -3  597.96    6.41
  -5   1  -3  605.67    6.41
   5  -1   2  562.06    7.50
   5  -1   2  572.25    6.92
   5  -1   2  616.52    6.26
   5  -1   2  545.46    5.90
  -5   1  -2  547.79    7.06
  -5   1  -2  594.17    7.65
  -5   1  -2  614.99    6.41
  -5   1  -2  600.14    6.33
   5  -1   1   40.34    2.26
   5  -1   1   39.54    1.97
   5  -1   1   43.69    1.75
  -5   1  -1   38.15    2.26
  -5   1  -1   40.63    2.26
  -5   1  -1   44.93    1.89
  -5   1  -1   41.29    1.82
   5  -1   0  252.89    4.95
   5  -1   0  263.81    4.08
   5  -1   0  268.98    3.42
   5  -1   0  250.41    3.35
  -5   1   0  258.86    4.73
  -5   1   0  272.84    4.81
   5  -1  -1  627.23    5.68
   5  -1  -1  657.08    7.72
   5  -1  -1  686.13    3.86
   5  -1  -1  597.37    3.57
  -5   1   1  635.75    7.57
  -5   1   1  605.60    7.65
  -5   1   1  640.19    6.92
   5  -1  -2  416.57    4.22
   5  -1  -2  417.67    6.41
   5  -1  -2  389.78    6.26
  -5   1   2  414.02    6.41
  -5   1   2  405.29    5.24
   5  -1  -3  323.95    3.42
   5  -1  -3  320.82    3.64
   5  -1  -3  296.43    5.68
  -5   1   3  301.67    5.75
  -5   1   3  269.41    5.32
  -5   1   3  303.20    4.37
   5  -1  -4 1193.29    6.04
   5  -1  -4 1171.52    7.72
   5  -1  -4 1138.31   11.36
   5  -1  -4 1108.24   11.07
  -5   1   4 1080.57   11.07
  -5   1   4  983.29    9.98
  -5   1   4 1120.11    7.79
   5  -1  -5  426.40    5.32
   5  -1  -5  434.34    7.35
   5  -1  -5  432.08    7.28
  -5   1   5  420.07    7.21
  -5   1   5  386.43    6.41
  -5   1   5  415.19    4.51
   5  -1  -6   18.64    1.67
   5  -1  -6   19.66    2.33
   5  -1  -6   19.95    2.40
  -5   1   6   16.38    2.04
  -5   1   6   18.06    1.97
  -5   1   6   19.66    1.24
   5  -1  -7   81.77    3.06
   5  -1  -7   82.35    3.79
   5  -1  -7   88.83    4.00
  -5   1   7   77.84    3.71
  -5   1   7   80.46    3.28
  -5   1   7   83.01    1.89
   5  -1  -8  169.15    4.51
   5  -1  -8  181.82    5.53
   5  -1  -8  182.55    5.68
  -5   1   8  169.88    5.32
  -5   1   8  173.74    4.59
   5  -1  -9  830.74   10.27
   5  -1  -9  914.12   12.45
  -5   1   9  801.11   11.43
  -5   1   9  843.85    9.68
   5  -1 -10  130.48    4.81
   5  -1 -10  141.77    5.61
  -5   1  10  119.34    5.02
  -5   1  10  132.96    4.22
   5  -1 -11  158.15    5.53
   5  -1 -11  181.09    6.55
  -5   1  11  175.19    6.19
   5  -1 -12   15.73    2.69
   5  -1 -12   15.95    3.13
   5  -1 -13   22.50    3.20
   5  -1 -13   26.50    3.71
  -5   1  13   28.32    3.71
   5  -1 -14   34.95    4.22
   5  -1 -14   36.99    4.44
  -5   1  14   32.99    3.93
   5  -1 -15   63.35    5.10
   5  -1 -15   66.99    5.46
  -5   1  15   64.81    5.02
  -5   1  16   12.89    3.20
   6  -1  16   20.75    4.00
   6  -1  16   19.15    3.71
  -6   1 -16   22.57    4.22
   6  -1  15    1.09    2.26
   6  -1  15    1.24    2.11
  -6   1 -15   -0.44    2.40
   6  -1  14   13.54    3.13
   6  -1  14   15.22    3.20
  -6   1 -14   20.46    3.71
   6  -1  13   47.98    4.00
   6  -1  13   48.79    4.44
   6  -1  13   47.62    4.44
  -6   1 -13   46.46    4.51
  -6   1 -13   46.31    4.73
   6  -1  12    3.50    1.89
   6  -1  12    2.48    1.97
  -6   1 -12    4.37    2.18
  -6   1 -12    4.66    2.33
   6  -1  11  110.82    5.02
   6  -1  11  119.20    5.53
  -6   1 -11  112.21    5.53
  -6   1 -11  111.77    5.75
   6  -1  10   36.26    3.35
   6  -1  10   36.12    3.35
  -6   1 -10   41.07    3.64
   6  -1   9  222.23    6.41
   6  -1   9  220.56    6.41
  -6   1  -9  228.93    6.55
   6  -1   8  302.47    7.14
   6  -1   8  312.16    7.06
  -6   1  -8  318.42    5.83
  -6   1  -8  335.09    7.94
   6  -1   7  485.60    8.66
   6  -1   7  478.10    8.16
  -6   1  -7  502.20    7.28
  -6   1  -7  512.32    9.32
  -6   1  -7  591.33    6.12
  -6   1  -7  526.67    5.83
   6  -1   6  341.28    7.14
   6  -1   6  328.39    6.33
  -6   1  -6  347.76    6.19
  -6   1  -6  355.48    7.57
  -6   1  -6  378.05    5.39
  -6   1  -6  370.34    5.32
   6  -1   5  690.07    9.76
  -6   1  -5  707.03    8.81
  -6   1  -5  755.53   10.49
  -6   1  -5  761.35    7.86
  -6   1  -5  782.54    7.94
   6  -1   4  588.49    8.81
   6  -1   4  595.77    8.59
   6  -1   4  624.46    7.50
   6  -1   4  566.94    7.14
  -6   1  -4  560.67    7.94
  -6   1  -4  614.34    9.10
  -6   1  -4  628.83    7.21
  -6   1  -4  682.78    7.57
   6  -1   3   77.04    3.42
   6  -1   3   76.53    3.20
   6  -1   3   82.28    2.77
   6  -1   3   71.21    2.55
  -6   1  -3   79.51    3.28
  -6   1  -3   78.13    3.42
  -6   1  -3   90.14    2.91
   6  -1   2  431.72    7.28
   6  -1   2  430.41    6.55
   6  -1   2  471.69    5.90
   6  -1   2  415.77    5.53
  -6   1  -2  412.86    6.92
  -6   1  -2  442.50    7.28
  -6   1  -2  460.34    6.12
  -6   1  -2  350.68    5.32
   6  -1   1  231.26    5.39
   6  -1   1  238.76    4.66
   6  -1   1  263.81    4.15
   6  -1   1  213.86    3.71
  -6   1  -1  224.12    5.24
  -6   1  -1  236.14    5.24
   6  -1   0  336.48    6.33
   6  -1   0  343.47    5.10
   6  -1   0  354.24    4.15
   6  -1   0  326.50    4.00
  -6   1   0  349.22    6.04
  -6   1   0  338.59    6.41
  -6   1   0  354.61    6.12
   6  -1  -1  116.65    2.84
  -6   1   1  121.75    3.86
  -6   1   1  121.16    3.57
   6  -1  -2   70.27    2.11
   6  -1  -2   75.36    3.28
   6  -1  -2   69.83    3.28
  -6   1   2   68.81    3.20
  -6   1   2   72.89    2.77
   6  -1  -3   54.61    1.67
   6  -1  -3   57.81    1.67
   6  -1  -3   55.56    2.99
   6  -1  -3   52.06    2.99
  -6   1   3   56.29    3.06
  -6   1   3   52.72    2.40
   6  -1  -4  304.29    3.86
   6  -1  -4  315.94    6.63
   6  -1  -4  297.59    6.41
  -6   1   4  300.87    6.48
  -6   1   4  271.02    5.97
  -6   1   4  303.35    4.88
   6  -1  -5  133.47    2.99
   6  -1  -5  134.12    4.73
   6  -1  -5  133.25    4.66
  -6   1   5  123.35    4.51
  -6   1   5  115.92    4.15
  -6   1   5  134.05    3.20
   6  -1  -6  304.00    4.88
   6  -1  -6  318.71    7.14
   6  -1  -6  309.97    6.99
  -6   1   6  289.07    6.84
  -6   1   6  281.94    6.26
  -6   1   6  303.56    4.44
   6  -1  -7  185.24    4.30
   6  -1  -7  190.92    5.90
   6  -1  -7  190.19    5.90
  -6   1   7  182.11    5.75
  -6   1   7  183.71    5.17
   6  -1  -8   70.19    3.20
   6  -1  -8   71.29    4.30
  -6   1   8   56.87    3.93
  -6   1   8   66.12    3.57
   6  -1  -9  152.84    4.66
   6  -1  -9  165.87    6.04
  -6   1   9  147.96    5.75
  -6   1   9  151.38    4.88
   6  -1 -10   62.55    3.57
   6  -1 -10   63.57    4.44
  -6   1  10   63.57    4.37
  -6   1  10   66.41    3.64
   6  -1 -11   36.92    3.35
   6  -1 -11   44.49    4.37
   6  -1 -12    5.83    2.55
   6  -1 -13  118.18    6.41
   6  -1 -14    4.22    2.69
  -6   1  14    2.48    2.40
   6  -1 -15   15.44    3.64
  -6   1  15   15.66    3.35
   6  -1 -16   22.21    4.22
  -6   1  16   22.65    3.93
  -6   1  17   31.31    4.81
   7  -1  15   15.80    3.64
   7  -1  15   14.05    3.50
  -7   1 -15   20.53    4.08
   7  -1  14    9.76    2.91
   7  -1  14    9.25    2.84
  -7   1 -14    8.59    3.13
   7  -1  13   24.76    3.57
   7  -1  13   30.07    4.08
   7  -1  13   28.54    4.08
  -7   1 -13   27.82    4.15
   7  -1  12   31.09    3.79
   7  -1  12   33.86    3.86
   7  -1  12   36.04    4.22
  -7   1 -12   32.69    4.37
   7  -1  11    6.33    2.26
   7  -1  11    6.77    2.26
   7  -1  11    4.81    2.26
  -7   1 -11    4.66    2.33
   7  -1  10  142.72    5.90
   7  -1  10  146.07    5.83
   7  -1  10  144.39    6.26
   7  -1   9  226.31    6.92
   7  -1   9  223.18    6.63
   7  -1   9  223.69    7.21
   7  -1   8  468.42    9.47
   7  -1   8  462.37    8.66
   7  -1   8  459.53    9.68
  -7   1  -8  482.91    7.86
  -7   1  -8  494.99   10.12
  -7   1  -8  539.12    6.12
  -7   1  -8  509.41    5.90
   7  -1   7  282.23    7.28
   7  -1   7  290.60    7.50
  -7   1  -7  298.90    6.41
  -7   1  -7  306.11    7.86
  -7   1  -7  325.70    5.32
  -7   1  -7  314.27    5.24
   7  -1   6   29.78    2.91
   7  -1   6   26.07    2.91
  -7   1  -6   29.49    2.69
  -7   1  -6   31.09    3.20
  -7   1  -6   31.67    2.11
  -7   1  -6   29.64    2.11
   7  -1   5  516.18    9.25
   7  -1   5  528.93    9.03
  -7   1  -5  530.38    8.52
  -7   1  -5  547.06    9.68
  -7   1  -5  562.64    7.43
  -7   1  -5  561.55    7.50
   7  -1   4  992.03   12.45
   7  -1   4  977.98   11.65
  -7   1  -4  925.04   11.14
  -7   1  -4 1016.35   12.60
  -7   1  -4 1055.45   10.27
   7  -1   3  351.48    7.35
   7  -1   3  369.90    6.92
   7  -1   3  414.10    6.26
   7  -1   3  330.22    5.53
  -7   1  -3  325.12    6.84
  -7   1  -3  373.90    7.57
   7  -1   2  717.74   10.27
   7  -1   2  719.85    9.03
   7  -1   2  791.42    8.08
   7  -1   2  643.83    7.28
  -7   1  -2  673.54    9.68
  -7   1  -2  741.84   10.19
   7  -1   1  551.35    8.88
   7  -1   1  565.70    7.57
   7  -1   1  591.98    6.41
   7  -1   1  513.13    5.97
  -7   1  -1  537.66    8.74
  -7   1  -1  568.39    8.66
   7  -1   0  371.94    5.75
   7  -1   0  380.97    4.44
   7  -1   0  344.41    4.22
  -7   1   0  358.18    6.77
  -7   1   0  352.28    7.21
  -7   1   0  388.39    6.99
   7  -1  -1   92.77    2.91
  -7   1   1   99.47    4.00
  -7   1   1   90.07    4.00
  -7   1   1   92.62    3.57
   7  -1  -2   54.03    2.11
   7  -1  -2   51.41    3.28
  -7   1   2   53.52    3.28
  -7   1   2   47.98    3.13
  -7   1   2   50.90    2.77
   7  -1  -3  469.44    4.95
   7  -1  -3  477.08    8.52
   7  -1  -3  469.36    8.52
  -7   1   3  457.57    8.30
  -7   1   3  414.90    7.94
  -7   1   3  455.82    6.92
   7  -1  -4  343.47    7.50
   7  -1  -4  343.25    7.50
  -7   1   4  329.27    7.35
  -7   1   4  286.60    6.77
  -7   1   4  334.73    5.75
   7  -1  -5  190.34    5.90
   7  -1  -5  183.42    5.83
  -7   1   5  189.10    5.90
  -7   1   5  167.33    5.39
  -7   1   5  184.95    4.30
   7  -1  -6  581.06   10.27
   7  -1  -6  570.87   10.05
  -7   1   6  569.48   10.12
  -7   1   6  533.08    9.17
  -7   1   6  547.13    7.86
   7  -1  -7  326.36    8.01
  -7   1   7  306.99    7.86
  -7   1   7  308.95    7.21
   7  -1  -8   59.05    4.30
  -7   1   8   55.12    4.15
  -7   1   8   61.16    3.79
   7  -1  -9  168.06    6.48
  -7   1   9  152.69    6.26
  -7   1   9  152.69    5.39
   7  -1 -10    6.77    2.55
  -7   1  10    2.69    2.18
  -7   1  10    4.08    1.89
   7  -1 -11  196.96    7.50
   7  -1 -12   29.93    4.15
   7  -1 -13  123.42    6.92
   7  -1 -14    5.02    3.06
  -7   1  14    6.04    2.62
   7  -1 -15   46.97    5.46
  -7   1  15   43.03    4.95
   7  -1 -16   59.05    6.04
  -7   1  16   54.47    5.39
   8  -1  14   61.82    5.61
  -8   1 -14   58.32    5.83
   8  -1  13    5.17    2.48
   8  -1  13    3.42    2.33
  -8   1 -13    5.17    2.91
   8  -1  12   38.30    4.30
   8  -1  12   43.98    4.81
  -8   1 -12   38.15    4.88
   8  -1  11  183.13    7.21
   8  -1  11  169.00    7.35
   8  -1  10   12.09    2.84
   8  -1  10    8.37    2.62
   8  -1   9  156.84    6.41
   8  -1   9  146.72    6.41
  -8   1  -9  170.39    6.92
  -8   1  -9  161.07    3.35
  -8   1  -9  157.35    3.35
   8  -1   8  116.65    5.53
   8  -1   8  116.79    5.53
  -8   1  -8  122.26    4.81
  -8   1  -8  127.43    6.04
  -8   1  -8  136.60    3.71
  -8   1  -8  118.47    3.50
   8  -1   7   18.57    2.84
   8  -1   7   22.06    2.99
  -8   1  -7   25.41    2.84
  -8   1  -7   22.43    3.28
  -8   1  -7   23.16    2.04
  -8   1  -7   24.32    2.18
   8  -1   6   18.13    2.69
   8  -1   6   21.77    2.91
  -8   1  -6   23.88    2.77
  -8   1  -6   21.63    3.06
  -8   1  -6   22.28    2.33
   8  -1   5  134.34    5.39
   8  -1   5  132.60    5.10
  -8   1  -5  139.80    5.17
  -8   1  -5  141.04    5.68
   8  -1   4  401.50    8.66
   8  -1   4  416.72    8.16
  -8   1  -4  391.02    8.16
  -8   1  -4  427.57    9.03
   8  -1   3  518.37    9.68
   8  -1   3  526.74    8.74
   8  -1   3  548.00    7.57
   8  -1   3  451.67    6.84
  -8   1  -3  484.95    9.03
  -8   1  -3  535.19    9.68
   8  -1   2  531.84    9.68
   8  -1   2  543.20    8.45
   8  -1   2  590.82    7.35
   8  -1   2  491.57    6.63
  -8   1  -2  503.22    9.25
  -8   1  -2  553.76    9.61
   8  -1   1  144.10    5.32
   8  -1   1  147.45    4.37
   8  -1   1  162.38    3.64
   8  -1   1  142.50    3.35
  -8   1  -1  134.71    5.17
  -8   1  -1  144.68    5.10
   8  -1   0  140.97    4.00
   8  -1   0  157.72    2.91
   8  -1   0  129.25    2.62
  -8   1   0  121.46    5.02
  -8   1   0  144.68    4.95
   8  -1  -1  297.81    5.24
  -8   1   1  309.61    7.06
  -8   1   1  267.38    6.99
  -8   1   1  310.77    6.77
   8  -1  -2  105.29    4.81
  -8   1   2  109.15    4.66
  -8   1   2   98.88    4.59
  -8   1   2  111.33    4.22
   8  -1  -3   76.82    4.37
  -8   1   3   71.72    4.08
  -8   1   3   66.33    4.00
  -8   1   3   74.71    3.50
   8  -1  -4   61.67    4.15
  -8   1   4   63.13    4.08
  -8   1   4   48.28    3.79
  -8   1   4   64.00    3.20
   8  -1  -5    2.62    1.89
  -8   1   5    5.39    2.04
  -8   1   5    2.18    1.67
  -8   1   5    3.35    1.46
   8  -1  -6   32.33    3.71
  -8   1   6   30.58    3.50
  -8   1   6   27.01    3.28
   8  -1  -7  258.64    7.72
  -8   1   7  261.91    7.86
  -8   1   7  245.60    7.14
   8  -1  -8   75.58    5.10
  -8   1   8   66.33    4.81
  -8   1   8   65.82    4.37
   8  -1  -9  151.75    6.63
  -8   1   9  144.03    6.55
  -8   1   9  146.21    5.83
   8  -1 -10   31.67    4.00
  -8   1  10   32.40    3.71
   8  -1 -11   59.34    5.17
   8  -1 -12   14.13    3.50
   8  -1 -13   47.55    5.32
   8  -1 -14   42.38    5.46
   8  -1 -15   17.91    4.15
  -8   1  15   15.58    3.71
   9  -1  14   10.70    3.42
   9  -1  13   51.26    5.24
   9  -1  13   46.38    5.24
  -9   1 -13   48.42    5.61
   9  -1  12   11.87    3.13
   9  -1  12    9.68    2.99
  -9   1 -12    7.79    3.06
   9  -1  11   10.41    2.99
   9  -1  11   10.41    3.06
   9  -1  10   10.12    2.77
   9  -1  10   10.56    2.91
   9  -1   9   37.14    4.15
   9  -1   9   41.65    4.30
  -9   1  -9   40.56    4.66
  -9   1  -9   41.14    2.33
  -9   1  -9   41.29    2.40
   9  -1   8   44.56    4.44
   9  -1   8   43.40    4.22
  -9   1  -8   47.18    4.66
  -9   1  -8   45.07    2.69
  -9   1  -8   50.90    2.84
   9  -1   7    7.94    2.48
   9  -1   7    9.47    2.48
  -9   1  -7    6.33    2.11
  -9   1  -7    7.72    2.55
   9  -1   6   83.30    4.95
   9  -1   6   84.61    4.73
  -9   1  -6   91.67    4.73
  -9   1  -6   81.19    5.02
   9  -1   5   66.92    4.66
   9  -1   5   73.03    4.30
  -9   1  -5   67.57    4.37
  -9   1  -5   69.32    4.66
   9  -1   4   20.61    3.06
   9  -1   4   17.69    2.62
  -9   1  -4   16.24    2.77
  -9   1  -4   15.73    2.84
   9  -1   3   70.85    4.51
   9  -1   3   65.10    3.86
   9  -1   3   69.03    3.13
   9  -1   3   60.65    2.84
  -9   1  -3   69.47    4.44
  -9   1  -3   68.81    4.51
   9  -1   2  678.34   11.80
   9  -1   2  684.97    9.98
   9  -1   2  748.03    8.45
   9  -1   2  638.95    7.72
  -9   1  -2  639.53   11.21
  -9   1  -2  678.56   11.43
   9  -1   1  147.96    4.73
   9  -1   1  162.30    3.64
   9  -1   1  138.86    3.35
  -9   1  -1  141.26    5.83
  -9   1  -1  157.57    5.83
   9  -1   0    2.62    1.38
  -9   1   0    0.22    1.82
  -9   1   0    2.04    1.82
   9  -1  -1  274.51    7.79
  -9   1   1  259.00    7.50
  -9   1   1  287.18    7.14
   9  -1  -2  310.70    8.30
  -9   1   2  302.76    7.79
  -9   1   2  289.80    7.94
  -9   1   2  329.34    7.43
   9  -1  -3  192.38    6.92
  -9   1   3  189.90    6.63
  -9   1   3  180.44    6.55
  -9   1   3  197.55    5.75
   9  -1  -4  275.02    8.08
  -9   1   4  261.26    7.79
  -9   1   4  248.44    7.57
  -9   1   4  279.39    6.55
   9  -1  -5  143.23    6.26
  -9   1   5  134.78    6.12
  -9   1   5  134.42    5.90
   9  -1  -6   92.40    5.46
  -9   1   6   93.57    5.46
  -9   1   6   90.07    5.17
   9  -1  -7   18.64    3.42
  -9   1   7   19.88    3.42
  -9   1   7   23.88    3.42
   9  -1  -8   76.02    5.46
  -9   1   8   76.46    5.39
  -9   1   8   74.42    4.95
   9  -1  -9   42.96    4.95
  -9   1   9   44.93    4.30
   9  -1 -10   26.43    3.93
  -9   1  10   25.34    3.50
   9  -1 -11   67.35    5.61
   9  -1 -12   19.51    3.79
   9  -1 -13   57.60    6.04
   9  -1 -14   12.23    3.79
  10  -1  13    6.26    3.06
  10  -1  12    0.66    2.40
  10  -1  12    0.58    2.40
  10  -1  11   68.30    5.61
  10  -1  11   67.57    5.75
  10  -1  10   69.32    5.68
  10  -1  10   63.86    5.46
  10  -1   9   18.57    3.57
  10  -1   9   20.53    3.64
 -10   1  -9   25.27    4.15
 -10   1  -9   23.74    2.26
 -10   1  -9   23.01    2.33
  10  -1   8  149.63    7.06
  10  -1   8  148.25    6.77
 -10   1  -8  173.37    7.65
  10  -1   7   37.86    4.44
  10  -1   7   38.23    4.15
 -10   1  -7   36.48    3.93
 -10   1  -7   37.57    4.51
  10  -1   6   17.04    3.35
  10  -1   6   18.20    3.06
 -10   1  -6   19.88    3.13
 -10   1  -6   18.35    3.35
  10  -1   5    4.59    2.33
  10  -1   5    5.97    2.11
 -10   1  -5    8.08    2.40
 -10   1  -5    3.71    2.40
  10  -1   4    8.66    2.62
  10  -1   4    9.03    2.26
 -10   1  -4    7.79    2.40
 -10   1  -4    9.03    2.77
  10  -1   3   17.04    2.91
  10  -1   3   20.75    2.77
  10  -1   3   19.08    2.18
  10  -1   3   16.38    1.89
 -10   1  -3   19.44    3.20
 -10   1  -3   20.24    3.28
  10  -1   2  124.51    4.95
  10  -1   2  138.86    3.86
  10  -1   2  117.60    3.50
 -10   1  -2  124.95    5.97
 -10   1  -2  139.08    6.12
  10  -1   1   76.75    2.55
  10  -1   1   63.06    2.26
 -10   1  -1   75.07    5.02
 -10   1  -1   74.42    4.95
 -10   1   0  203.95    7.35
 -10   1   0  212.62    6.99
  10  -1  -1   43.98    4.51
 -10   1   1   47.26    4.51
 -10   1   1   51.41    4.15
  10  -1  -2   57.96    4.81
 -10   1   2   58.32    4.73
 -10   1   2   61.75    4.22
  10  -1  -3   56.21    4.88
 -10   1   3   54.39    4.73
 -10   1   3   54.54    3.93
  10  -1  -4  105.65    5.97
 -10   1   4   99.39    5.68
  10  -1  -5    7.94    2.69
 -10   1   5    8.01    2.55
  10  -1  -6   54.68    4.95
 -10   1   6   57.81    4.88
  10  -1  -7   19.30    3.57
 -10   1   7   21.19    3.57
  10  -1  -8   15.36    3.64
 -10   1   8   10.78    2.91
  10  -1  -9    2.18    2.77
 -10   1   9    0.22    2.26
  10  -1 -10   34.00    4.73
 -10   1  10   30.07    4.00
  10  -1 -11   25.56    4.37
  10  -1 -12   18.35    4.00
  11  -1  11   29.05    6.33
  11  -1  10   21.33    3.93
  11  -1  10   20.02    3.86
 -11   1 -10   22.57    2.04
 -11   1 -10   24.17    2.11
  11  -1   9    6.99    3.06
  11  -1   9    4.66    2.77
 -11   1  -9    6.63    2.62
 -11   1  -9    8.23    1.82
  11  -1   8   53.74    5.53
  11  -1   8   52.06    5.02
 -11   1  -8   48.93    5.53
  11  -1   7   16.16    3.57
  11  -1   7   14.78    3.20
 -11   1  -7   19.59    3.42
 -11   1  -7   19.37    3.86
  11  -1   6   30.44    4.37
  11  -1   6   25.34    3.71
 -11   1  -6   27.31    4.00
 -11   1  -6   29.20    4.37
  11  -1   5   11.43    3.13
  11  -1   5    7.94    2.48
 -11   1  -5    6.99    2.69
 -11   1  -5    8.37    2.91
  11  -1   4   56.87    5.39
  11  -1   4   64.59    4.66
 -11   1  -4   63.49    5.17
 -11   1  -4   64.59    5.32
  11  -1   3   11.07    1.75
  11  -1   3    9.61    1.53
 -11   1  -3    9.47    2.91
 -11   1  -3   11.07    3.06
  11  -1   2    6.55    1.38
  11  -1   2    6.63    1.24
 -11   1  -2    8.52    2.84
 -11   1  -2    7.65    2.77
 -11   1  -1   10.92    2.99
 -11   1  -1    8.59    2.77
 -11   1   0  106.82    6.26
 -11   1   0  113.59    5.90
  11  -1  -1   19.30    3.57
 -11   1   1   20.75    3.64
 -11   1   1   21.12    3.35
  11  -1  -2   29.34    4.22
 -11   1   2   25.63    3.86
 -11   1   2   28.18    3.57
  11  -1  -3   32.26    4.30
 -11   1   3   34.95    4.30
 -11   1   3   29.13    4.44
  11  -1  -4   54.17    5.46
 -11   1   4   54.17    5.17
  11  -1  -5   20.10    3.79
 -11   1   5   16.31    3.35
  11  -1  -6   31.53    4.30
 -11   1   6   39.39    4.81
  11  -1  -7   39.47    4.95
 -11   1   7   43.40    4.95
  11  -1  -8   31.67    4.73
 -11   1   8   29.85    4.15
  11  -1  -9   12.01    3.71
 -11   1   9    7.94    3.06
  11  -1 -10   30.51    4.73
 -11   1  10   26.58    4.22
  11  -1 -11   14.42    5.24
  12  -1   9   84.03    6.63
  12  -1   8   38.88    5.39
  12  -1   8   31.89    4.44
 -12   1  -8   38.96    7.28
  12  -1   7   64.66    6.19
  12  -1   7   69.32    5.68
 -12   1  -7   83.30    9.32
 -12   1  -7   74.64    6.48
  12  -1   6    9.54    3.35
 -12   1  -6    2.84    2.69
 -12   1  -6    5.53    3.06
  12  -1   5    1.97    2.62
 -12   1  -5    1.31    2.48
 -12   1  -5    1.97    2.77
  12  -1   4   40.19    2.84
 -12   1  -4   51.70    5.24
 -12   1  -4   52.57    5.53
  12  -1   3  208.47    4.81
  12  -1   3  181.96    4.44
 -12   1  -3  216.41    8.74
 -12   1  -3  225.94    8.74
 -12   1  -2    8.45    3.13
 -12   1  -2    9.32    3.13
 -12   1  -1   44.42    5.32
 -12   1  -1   36.04    4.59
  12  -1   0  120.58    6.99
 -12   1   0  116.14    6.99
 -12   1   0  115.99    6.41
  12  -1  -1   33.86    4.59
 -12   1   1   43.83    5.39
 -12   1   1   40.70    4.66
  12  -1  -2   37.57    4.95
 -12   1   2   32.84    4.51
 -12   1   2   35.39    4.59
  12  -1  -3   34.81    4.81
 -12   1   3   35.82    4.73
  12  -1  -4   12.82    3.71
 -12   1   4   12.82    3.42
  12  -1  -5   49.95    5.61
 -12   1   5   56.94    5.75
  12  -1  -6   15.36    3.71
 -12   1   6   15.00    3.57
  12  -1  -7   89.20    6.70
 -12   1   7   85.34    6.48
  12  -1  -8   13.25    4.00
 -12   1   8   15.22    3.86
 -12   1   9   19.44    3.93
 -12   1  10    5.32    3.86
 -13   1  -6    6.12    3.20
 -13   1  -5   31.38    4.66
 -13   1  -5   26.72    6.04
  13  -1   4    4.81    1.60
  13  -1   4    4.08    1.38
 -13   1  -4    6.84    3.35
 -13   1  -4    4.08    3.20
 -13   1  -3   23.52    4.44
 -13   1  -3   22.65    4.37
 -13   1  -2  104.05    7.21
 -13   1  -2  114.10    7.06
  13  -1   1   16.53    4.15
 -13   1  -1   23.45    4.44
 -13   1  -1   25.70    4.30
  13  -1   0   62.48    6.26
 -13   1   0   65.53    6.41
 -13   1   0   68.30    5.97
  13  -1  -1   62.40    6.48
 -13   1   1   68.81    6.41
 -13   1   1   71.43    8.08
  13  -1  -2   26.58    4.73
 -13   1   2   31.16    4.81
  13  -1  -3   11.50    3.86
 -13   1   3   12.60    3.71
  13  -1  -4   23.45    4.51
 -13   1   4   19.08    4.22
 -13   1   5   26.65    7.06
 -14   1  -1    7.79    4.44
 -12  -2   3    7.21    3.42
 -12  -2   2    0.00    2.84
 -12  -2   2    1.31    3.20
 -12  -2   1   22.86    5.24
 -12  -2   1   20.02    4.08
 -12  -2   0    4.51    3.06
 -12  -2  -1   11.80    3.71
 -12  -2  -2    2.55    4.66
  11   2  -8   11.94    3.93
 -11  -2   7   12.16    3.79
  11   2  -7   16.97    3.93
 -11  -2   6    5.61    3.35
 -11  -2   6    4.37    2.91
  11   2  -6    4.15    3.28
  11   2  -6    7.06    3.28
 -11  -2   5   23.16    4.15
 -11  -2   5   23.01    4.22
  11   2  -5   23.96    4.44
  11   2  -5   22.21    4.15
 -11  -2   4   21.84    4.08
  11   2  -4   17.84    4.00
  11   2  -4   14.78    3.79
 -11  -2   3   32.26    4.59
 -11  -2   3   29.05    4.15
  11   2  -3   37.06    4.81
  11   2  -3   28.18    4.37
 -11  -2   2    4.51    2.77
 -11  -2   2    1.60    2.62
  11   2  -2    1.02    2.69
  11   2  -2    4.59    2.99
 -11  -2   1   12.60    3.35
 -11  -2   1   12.31    3.35
  11   2  -1   16.53    3.64
 -11  -2   0   22.94    3.79
 -11  -2   0   24.39    4.00
 -11  -2  -1   25.78    4.22
  11   2   1   23.45    4.22
 -11  -2  -2    2.84    2.62
  11   2   2    3.42    2.77
 -11  -2  -3   51.48    5.53
  11   2   3   50.97    5.46
 -11  -2  -4   24.68    4.30
  11   2   4   23.96    4.51
  11   2   4   23.30    2.55
  11   2   4   21.26    2.11
 -11  -2  -5   74.93    5.97
 -11  -2  -5   83.45    6.55
  11   2   5   77.26    6.63
 -11  -2  -6   12.09    3.50
 -11  -2  -6   15.22    4.30
  11   2   6   10.70    4.00
 -10  -2  10   19.37    3.93
  10   2 -10   22.50    4.30
 -10  -2   9   -1.02    3.50
 -10  -2   9    4.08    2.77
  10   2  -9   -3.42    3.50
  10   2  -9    1.24    2.91
 -10  -2   8   -0.36    2.77
 -10  -2   8    1.24    2.48
  10   2  -8    0.00    2.77
  10   2  -8    0.44    2.69
 -10  -2   7    9.90    3.42
 -10  -2   7   10.05    3.28
  10   2  -7   13.54    3.71
  10   2  -7    9.98    3.28
 -10  -2   6   20.39    3.93
  10   2  -6   17.84    3.93
  10   2  -6   20.75    3.86
 -10  -2   5   19.81    3.93
  10   2  -5   22.28    4.00
  10   2  -5   21.77    4.08
 -10  -2   4   40.27    4.81
 -10  -2   4   31.89    3.93
  10   2  -4   43.40    5.10
  10   2  -4   35.82    4.59
 -10  -2   3  141.19    7.06
 -10  -2   3  146.87    6.70
  10   2  -3  140.97    7.06
  10   2  -3  139.95    7.14
 -10  -2   2   87.38    5.83
 -10  -2   2   87.81    5.68
  10   2  -2   84.97    5.83
  10   2  -2   85.63    6.04
 -10  -2   1   26.07    3.86
 -10  -2   1   22.86    3.64
  10   2  -1   23.88    3.71
 -10  -2   0   25.27    3.64
 -10  -2   0   29.27    4.08
  10   2   0   29.64    4.30
  10   2   0   26.50    3.71
 -10  -2  -1   64.44    4.81
 -10  -2  -1   60.95    5.24
  10   2   1   63.06    5.24
  10   2   1   64.30    4.81
 -10  -2  -2   19.59    3.64
  10   2   2   25.99    3.93
 -10  -2  -3   25.19    4.00
  10   2   3   19.81    3.57
  10   2   3   19.30    2.11
  10   2   3   19.22    1.82
 -10  -2  -4   15.87    3.50
  10   2   4   13.69    3.35
  10   2   4   12.31    2.04
  10   2   4   12.01    1.75
 -10  -2  -5    0.66    2.33
  10   2   5    2.33    2.55
 -10  -2  -6    5.24    2.84
  10   2   6    4.08    2.77
 -10  -2  -7   18.06    3.57
 -10  -2  -7   18.64    3.86
  10   2   7   19.37    3.93
  10   2   7   16.02    3.28
 -10  -2  -8   64.22    6.04
  10   2   8   68.15    6.04
  10   2   8   62.33    5.39
 -10  -2  -9   12.52    4.00
  10   2   9   12.96    3.93
  10   2   9   10.05    3.28
 -10  -2 -10    7.50    1.67
 -10  -2 -10    6.70    1.67
  10   2  10    7.28    3.13
  -9  -2  11    4.15    3.28
   9   2 -11    6.63    3.79
  -9  -2  10   12.60    3.64
  -9  -2  10   10.12    2.99
   9   2 -10   13.98    3.86
   9   2 -10   15.00    3.50
  -9  -2   9    6.04    3.06
  -9  -2   9    5.24    2.62
   9   2  -9    5.68    3.13
   9   2  -9    5.68    2.99
  -9  -2   8   36.55    4.66
   9   2  -8   38.23    4.81
   9   2  -8   37.35    4.51
  -9  -2   7   43.18    5.10
   9   2  -7   41.21    5.10
   9   2  -7   34.88    4.37
  -9  -2   6   42.89    4.95
   9   2  -6   43.40    5.02
   9   2  -6   41.80    4.73
  -9  -2   5   60.65    5.24
  -9  -2   5   59.34    4.44
   9   2  -5   58.40    5.24
   9   2  -5   57.52    5.02
  -9  -2   4   32.04    4.15
  -9  -2   4   29.78    3.71
   9   2  -4   33.13    4.22
   9   2  -4   35.24    4.22
  -9  -2   3   52.72    4.81
  -9  -2   3   50.10    4.37
   9   2  -3   49.08    4.66
   9   2  -3   47.40    4.66
  -9  -2   2   61.75    4.95
  -9  -2   2   55.12    4.44
   9   2  -2   55.85    4.66
   9   2  -2   55.63    4.88
  -9  -2   1  208.76    7.28
  -9  -2   1  201.26    7.28
   9   2  -1  191.14    7.21
   9   2  -1  208.25    7.35
  -9  -2   0  255.94    7.72
  -9  -2   0  250.70    8.08
   9   2   0  239.12    7.86
   9   2   0  249.25    7.57
  -9  -2  -1  148.54    5.97
  -9  -2  -1  148.32    6.63
   9   2   1  138.86    6.41
   9   2   1  150.65    5.97
  -9  -2  -2   28.18    3.42
  -9  -2  -2   23.88    3.64
   9   2   2   24.10    3.57
   9   2   2   21.41    3.06
   9   2   2   22.65    1.89
   9   2   2   22.50    1.75
  -9  -2  -3   18.20    3.35
   9   2   3   21.04    3.50
   9   2   3   19.81    2.18
   9   2   3   16.75    1.89
  -9  -2  -4   43.18    4.51
   9   2   4   47.69    4.73
  -9  -2  -5   21.99    3.57
   9   2   5   18.06    3.35
  -9  -2  -6   29.49    4.22
   9   2   6   25.27    3.93
  -9  -2  -7   24.32    3.86
   9   2   7   30.22    4.22
  -9  -2  -8   22.72    4.08
   9   2   8   21.33    3.71
  -9  -2  -9    5.97    2.91
   9   2   9    5.17    2.77
  -9  -2 -10   36.33    4.95
  -9  -2 -10   36.26    2.40
  -9  -2 -10   37.35    2.48
   9   2  10   40.34    5.02
  -9  -2 -11    7.65    3.20
   9   2  11    4.30    2.91
  -8  -2  13    9.54    3.93
   8   2 -13    7.94    4.59
  -8  -2  12   14.27    3.79
   8   2 -12   17.26    4.22
  -8  -2  11   21.92    4.00
   8   2 -11   27.16    4.44
   8   2 -11   25.78    3.93
  -8  -2  10   11.43    3.20
  -8  -2  10    9.98    2.77
   8   2 -10    8.88    3.20
   8   2 -10    6.12    2.84
  -8  -2   9   38.23    4.81
   8   2  -9   41.36    5.02
   8   2  -9   35.53    4.30
  -8  -2   8   82.43    5.90
   8   2  -8   82.50    5.90
   8   2  -8   80.46    5.39
  -8  -2   7   20.24    3.57
   8   2  -7   16.97    3.42
   8   2  -7   13.76    2.91
  -8  -2   6    8.30    2.84
  -8  -2   6    6.63    3.57
   8   2  -6    9.39    2.91
   8   2  -6   10.41    2.77
  -8  -2   5   15.44    3.13
  -8  -2   5   15.36    2.62
   8   2  -5   19.15    3.35
   8   2  -5   15.58    3.06
  -8  -2   4  285.73    8.45
  -8  -2   4  301.23    7.72
   8   2  -4  294.39    8.52
   8   2  -4  300.51    8.45
  -8  -2   3   80.31    4.95
  -8  -2   3   87.89    4.66
   8   2  -3   89.13    5.10
   8   2  -3   76.24    4.88
  -8  -2   2  130.05    5.75
  -8  -2   2  137.62    5.68
   8   2  -2  134.78    5.75
  -8  -2   1   79.88    4.66
  -8  -2   1   78.42    4.66
   8   2  -1   80.24    4.73
   8   2  -1   84.54    4.73
  -8  -2   0  322.86    7.94
  -8  -2   0  326.87    8.45
   8   2   0  312.67    8.23
   8   2   0  316.74    7.86
  -8  -2  -1  524.85    9.68
  -8  -2  -1  529.51   10.63
   8   2   1  495.94   10.27
   8   2   1  527.62    9.68
   8   2   1  531.04    5.53
   8   2   1  446.94    5.10
  -8  -2  -2  234.83    6.48
  -8  -2  -2  224.92    7.35
   8   2   2  232.72    7.43
   8   2   2  238.98    6.48
   8   2   2  238.03    4.73
   8   2   2  195.80    4.22
  -8  -2  -3   58.98    3.64
  -8  -2  -3   59.20    4.44
   8   2   3   53.08    4.30
   8   2   3   57.52    3.57
   8   2   3   57.09    2.91
   8   2   3   53.23    2.62
  -8  -2  -4   72.23    4.88
   8   2   4   68.88    4.73
  -8  -2  -5   14.27    2.91
   8   2   5   13.62    2.77
  -8  -2  -6   37.06    4.44
   8   2   6   30.00    3.86
  -8  -2  -7   15.36    3.20
   8   2   7   16.02    3.06
  -8  -2  -8   40.12    4.51
   8   2   8   38.81    4.51
  -8  -2  -9    5.46    2.55
  -8  -2  -9    4.66    1.38
  -8  -2  -9    2.69    1.24
   8   2   9    4.22    2.48
  -8  -2 -10   34.73    4.66
  -8  -2 -10   33.79    2.11
  -8  -2 -10   31.02    2.04
   8   2  10   30.58    4.22
  -8  -2 -11   49.37    5.10
   8   2  11   57.74    5.46
  -8  -2 -12   11.72    3.28
   8   2  12    7.94    3.13
  -8  -2 -13    2.77    2.99
   8   2  13    3.20    2.77
  -7  -2  14    5.75    3.06
   7   2 -14    7.50    3.28
  -7  -2  13   -1.17    2.40
   7   2 -13   -0.44    2.69
  -7  -2  12   41.50    5.10
   7   2 -12   50.53    5.46
   7   2 -12   39.39    5.17
  -7  -2  11   11.80    3.13
   7   2 -11   18.28    3.71
   7   2 -11   13.91    3.06
  -7  -2  10   15.87    3.28
   7   2 -10   18.28    3.64
   7   2 -10   18.93    3.20
  -7  -2   9   33.64    4.15
   7   2  -9   37.50    4.44
   7   2  -9   33.42    4.08
  -7  -2   8   66.99    4.95
   7   2  -8   72.23    5.24
   7   2  -8   71.21    4.66
   7   2  -7   26.21    3.57
   7   2  -7   24.68    3.28
  -7  -2   6  165.36    5.39
   7   2  -6  166.09    6.55
   7   2  -6  157.06    5.97
  -7  -2   5   24.32    2.91
   7   2  -5   21.33    3.13
   7   2  -5   19.95    2.84
  -7  -2   4  116.07    4.73
   7   2  -4  122.11    5.39
   7   2  -4  120.22    5.24
  -7  -2   3  136.75    5.10
   7   2  -3  134.42    5.46
   7   2  -3  132.60    5.39
  -7  -2   2   53.01    3.64
   7   2  -2   59.49    3.79
   7   2  -2   58.54    3.86
  -7  -2   1   79.08    4.22
   7   2  -1   77.47    4.15
   7   2  -1   83.45    4.30
  -7  -2   0  225.36    6.55
   7   2   0  218.59    6.48
   7   2   0  222.89    6.19
  -7  -2  -1  182.69    6.12
   7   2   1  182.98    6.04
   7   2   1  192.60    5.61
   7   2   1  198.35    3.79
   7   2   1  159.17    3.35
  -7  -2  -2  373.61    8.52
   7   2   2  357.45    8.30
   7   2   2  399.39    7.57
   7   2   2  404.70    6.04
   7   2   2  339.10    5.46
  -7  -2  -3    9.90    2.04
  -7  -2  -3    9.90    2.18
   7   2   3   10.56    2.33
   7   2   3    8.16    1.75
   7   2   3   10.49    1.60
   7   2   3    7.86    1.31
  -7  -2  -4  166.31    4.88
  -7  -2  -4  157.13    5.97
   7   2   4  166.24    4.73
  -7  -2  -5   95.61    5.10
   7   2   5   98.66    5.10
  -7  -2  -6  385.19    9.39
   7   2   6  358.10    9.10
  -7  -2  -7   57.45    4.59
   7   2   7   57.01    4.44
  -7  -2  -8   34.66    4.00
  -7  -2  -8   41.07    2.55
  -7  -2  -8   43.11    2.62
   7   2   8   37.28    4.00
  -7  -2  -9   26.43    3.64
  -7  -2  -9   28.62    2.11
  -7  -2  -9   26.29    2.11
   7   2   9   29.05    3.79
  -7  -2 -10   12.82    2.91
   7   2  10   15.22    3.13
  -7  -2 -11   39.39    4.44
  -7  -2 -11   43.47    5.02
   7   2  11   37.28    4.37
  -7  -2 -12   63.86    5.32
  -7  -2 -12   58.25    5.10
   7   2  12   50.90    5.10
   7   2  12   52.14    6.41
  -7  -2 -13   16.67    3.64
  -7  -2 -13   15.80    3.35
   7   2  13   11.94    3.28
   7   2  13   11.87    3.93
  -7  -2 -14    5.17    2.69
  -7  -2 -14    4.30    2.91
   7   2  14    3.64    2.77
   7   2  14    8.30    4.51
  -7  -2 -15   46.89    6.41
  -6  -2  15   22.57    4.00
   6   2 -15   16.82    3.86
  -6  -2  14   39.39    4.81
   6   2 -14   37.35    4.81
  -6  -2  13    4.00    2.62
   6   2 -13    3.28    2.69
  -6  -2  12   58.47    5.17
   6   2 -12   59.49    5.24
   6   2 -12   61.60    4.88
  -6  -2  11   30.36    3.93
   6   2 -11   33.57    4.30
   6   2 -11   32.55    4.00
  -6  -2  10   13.69    2.91
   6   2 -10   13.54    3.13
   6   2 -10   15.22    2.84
   6   2  -9  143.74    6.41
   6   2  -9  148.18    5.90
   6   2  -8    4.51    2.26
   6   2  -8    5.24    1.97
  -6  -2   7  157.79    4.81
   6   2  -7  153.13    6.12
   6   2  -7  157.35    5.68
  -6  -2   6   60.73    3.35
   6   2  -6   55.48    3.93
   6   2  -6   59.20    3.79
  -6  -2   5   31.09    2.69
   6   2  -5   29.56    3.20
   6   2  -5   30.36    2.99
  -6  -2   4   40.85    2.84
   6   2  -4   42.67    3.28
   6   2  -4   43.91    3.28
  -6  -2   3    6.41    1.67
   6   2  -3    5.97    1.82
   6   2  -3    7.65    1.82
  -6  -2   2  137.55    4.66
   6   2  -2  127.94    4.51
   6   2  -2  132.23    4.81
  -6  -2   1   49.81    3.20
   6   2  -1   49.15    3.13
   6   2  -1   50.32    3.20
  -6  -2   0  723.20   10.41
   6   2   0  706.52   10.19
   6   2   0  732.08    9.98
   6   2   0  749.19    5.46
   6   2   0  629.48    5.02
  -6  -2  -1  226.89    6.12
   6   2   1  233.30    5.61
   6   2   1  232.72    4.00
   6   2   1  198.78    3.71
  -6  -2  -2   82.79    4.08
   6   2   2   77.55    3.93
   6   2   2   80.10    3.42
   6   2   2   83.81    2.84
   6   2   2   72.60    2.62
  -6  -2  -3  323.66    7.50
   6   2   3  336.40    6.12
   6   2   3  350.02    5.90
   6   2   3  305.09    5.46
  -6  -2  -4  301.53    7.43
  -6  -2  -4  293.44    5.02
   6   2   4  284.78    7.21
   6   2   4  286.16    4.95
   6   2   4  313.03    5.68
  -6  -2  -5  347.04    8.08
  -6  -2  -5  348.13    6.04
   6   2   5  332.11    7.94
   6   2   5  325.92    5.83
  -6  -2  -6  275.09    7.50
  -6  -2  -6  263.81    5.75
  -6  -2  -6  334.51    8.16
  -6  -2  -6  271.09    5.53
   6   2   6  252.67    7.21
  -6  -2  -7  136.16    5.68
  -6  -2  -7  128.52    4.59
  -6  -2  -7  140.90    4.00
  -6  -2  -7  133.62    3.93
   6   2   7  126.19    5.53
  -6  -2  -8    4.73    2.11
  -6  -2  -8    7.94    1.97
  -6  -2  -8    5.68    1.24
  -6  -2  -8    6.70    1.31
   6   2   8    6.55    2.18
  -6  -2  -9  144.54    6.12
  -6  -2  -9  137.11    5.32
  -6  -2  -9  145.99    3.35
  -6  -2  -9  141.70    3.28
   6   2   9  138.64    6.12
   6   2   9  134.93    5.24
  -6  -2 -10   60.58    4.51
  -6  -2 -10   59.05    4.22
   6   2  10   56.80    4.51
   6   2  10   60.58    4.08
  -6  -2 -11   22.50    3.50
  -6  -2 -11   25.34    3.42
   6   2  11   27.74    3.86
   6   2  11   22.65    3.20
  -6  -2 -12   43.25    4.51
  -6  -2 -12   43.47    4.30
   6   2  12   38.66    4.30
   6   2  12   44.64    4.15
  -6  -2 -13   20.39    3.50
  -6  -2 -13   20.46    3.50
   6   2  13   16.82    3.35
   6   2  13   15.58    3.20
  -6  -2 -14    0.58    2.11
  -6  -2 -14    2.04    2.40
   6   2  14    2.18    2.26
   6   2  14    0.73    2.18
  -6  -2 -15   52.21    5.46
  -6  -2 -15   50.46    5.46
   6   2  15   47.33    5.17
   6   2  15   47.04    5.02
  -5  -2  15   21.33    3.71
   5   2 -15   26.94    4.15
  -5  -2  14   53.96    5.02
   5   2 -14   49.00    4.95
  -5  -2  13   72.01    5.24
   5   2 -13   80.75    5.53
  -5  -2  12   18.57    3.20
   5   2 -12   20.17    3.42
   5   2 -12   21.48    3.28
  -5  -2  11   24.17    3.50
   5   2 -11   23.59    3.50
   5   2 -11   25.70    3.28
   5   2 -10  226.09    7.50
   5   2 -10  233.15    6.92
   5   2  -9  198.27    6.84
   5   2  -9  200.75    6.26
  -5  -2   8  322.72    6.19
   5   2  -8  304.95    7.94
   5   2  -8  317.33    7.28
  -5  -2   7  101.21    3.71
   5   2  -7   95.68    4.73
   5   2  -7  101.36    4.37
  -5  -2   6  176.65    4.66
   5   2  -6  169.22    5.68
   5   2  -6  163.47    5.10
  -5  -2   5  118.98    3.93
   5   2  -5  115.12    4.66
   5   2  -5  116.58    4.30
  -5  -2   4  314.41    6.12
   5   2  -4  295.63    6.77
   5   2  -4  292.64    6.33
  -5  -2   3  150.73    4.44
   5   2  -3  146.50    4.22
   5   2  -3  140.68    4.73
   5   2  -3  148.54    4.59
  -5  -2   2   11.07    1.75
   5   2  -2    9.54    1.60
   5   2  -2   10.63    1.75
  -5  -2   1  313.10    6.33
   5   2  -1  293.44    5.97
   5   2  -1  295.26    6.12
  -5  -2   0   37.86    2.69
   5   2   0   34.22    2.55
   5   2   0   32.62    2.40
   5   2   0   36.84    1.46
   5   2   0   33.93    1.38
  -5  -2  -1   37.65    2.69
   5   2   1   37.28    2.62
   5   2   1   38.81    2.40
   5   2   1   41.65    1.82
   5   2   1   32.69    1.60
  -5  -2  -2  132.09    4.51
  -5  -2  -2  127.35    2.55
   5   2   2  125.75    4.30
   5   2   2  130.48    3.71
   5   2   2  141.48    3.42
   5   2   2  120.65    3.13
  -5  -2  -3   79.51    3.71
  -5  -2  -3   81.48    2.48
  -5  -2  -3   87.67    4.44
  -5  -2  -3   83.74    2.99
   5   2   3   80.46    3.64
   5   2   3   84.90    2.99
   5   2   3   87.16    2.91
   5   2   3   74.93    2.69
  -5  -2  -4  557.69    9.17
  -5  -2  -4  555.72    6.77
  -5  -2  -4  558.49    7.35
  -5  -2  -4  570.43    7.43
   5   2   4  537.23    9.03
   5   2   4  561.84    6.70
   5   2   4  575.67    7.50
   5   2   4  500.46    6.99
  -5  -2  -5  166.24    5.32
  -5  -2  -5  159.68    4.15
  -5  -2  -5  175.48    4.22
  -5  -2  -5  171.70    4.15
   5   2   5  161.94    5.32
   5   2   5  165.29    3.50
  -5  -2  -6  285.36    7.06
  -5  -2  -6  295.70    5.97
  -5  -2  -6  323.22    5.53
  -5  -2  -6  302.25    5.32
   5   2   6  293.01    7.21
  -5  -2  -7  167.69    5.75
  -5  -2  -7  168.93    5.02
  -5  -2  -7  178.91    4.00
  -5  -2  -7  178.98    4.00
   5   2   7  164.20    5.68
  -5  -2  -8   24.25    3.06
  -5  -2  -8   23.66    2.62
  -5  -2  -8   24.98    1.75
  -5  -2  -8   24.32    1.67
   5   2   8   21.41    2.84
  -5  -2  -9  128.74    5.46
  -5  -2  -9  128.01    5.10
   5   2   9  131.50    5.61
  -5  -2 -10  155.75    6.04
  -5  -2 -10  146.65    5.68
   5   2  10  153.64    6.19
  -5  -2 -11   70.05    4.66
  -5  -2 -11   70.56    4.66
   5   2  11   73.54    4.81
  -5  -2 -12    4.73    2.18
  -5  -2 -12    5.61    2.33
   5   2  12    8.23    2.48
  -5  -2 -13   10.41    2.77
  -5  -2 -13    7.94    2.69
   5   2  13    7.06    2.48
   5   2  13   10.34    2.69
  -5  -2 -14   25.49    4.00
  -5  -2 -14   24.25    3.71
   5   2  14   20.46    3.42
   5   2  14   24.39    3.79
  -5  -2 -15   -2.04    2.18
  -5  -2 -15   -1.89    2.11
   5   2  15    0.29    2.18
   5   2  15   -0.07    2.26
  -5  -2 -16   48.64    5.75
  -5  -2 -16   43.54    5.24
   5   2  16   44.34    5.32
  -4  -2  14   24.54    3.50
  -4  -2  14   24.90    3.57
   4   2 -14   21.04    3.50
  -4  -2  13   68.88    4.73
  -4  -2  13   75.00    4.51
  -4  -2  13   69.10    4.59
   4   2 -13   65.82    4.95
   4   2 -13   76.16    4.88
  -4  -2  12    0.36    1.82
  -4  -2  12    1.67    2.62
  -4  -2  12    2.40    1.89
   4   2 -12    2.69    2.18
   4   2 -12    0.73    1.97
  -4  -2  11  395.46    7.94
  -4  -2  11  449.05    9.32
   4   2 -11  448.03    9.76
   4   2 -11  456.33    9.17
  -4  -2  10  650.09    9.39
  -4  -2  10  737.54   11.43
   4   2 -10  694.80   11.65
   4   2 -10  738.92   11.00
  -4  -2   9  367.06    6.70
  -4  -2   9  417.01    8.37
   4   2  -9  386.50    8.59
   4   2  -9  412.71    8.01
  -4  -2   8   64.00    2.91
  -4  -2   8   71.29    2.99
   4   2  -8   66.12    3.86
   4   2  -8   66.12    3.57
  -4  -2   7    2.84    1.17
   4   2  -7    0.58    1.38
   4   2  -7    1.75    1.24
  -4  -2   6  281.14    5.32
   4   2  -6  255.65    6.33
   4   2  -6  279.03    5.90
  -4  -2   5  175.85    4.30
   4   2  -5  168.64    5.02
   4   2  -5  168.27    4.51
  -4  -2   4  121.96    3.64
   4   2  -4  118.54    4.15
   4   2  -4  119.56    3.79
  -4  -2   3  450.65    6.70
   4   2  -3  420.72    6.04
   4   2  -3  410.53    7.06
   4   2  -3  416.94    6.63
  -4  -2   2  186.55    4.44
   4   2  -2  169.29    4.08
   4   2  -2  174.97    4.59
  -4  -2   1 2501.99   15.87
   4   2  -1 2339.76   14.71
   4   2  -1 2374.49   15.51
  -4  -2   0  663.71    8.37
   4   2   0  624.61    7.86
   4   2   0  642.30    7.79
   4   2   0  683.29    5.39
   4   2   0  597.81    4.95
  -4  -2  -1  350.60    6.26
  -4  -2  -1  334.73    3.28
   4   2   1  336.91    6.04
   4   2   1  345.43    5.53
   4   2   1  364.29    4.59
   4   2   1  322.57    4.37
  -4  -2  -2   40.49    2.55
  -4  -2  -2   40.99    1.60
  -4  -2  -2    0.07    0.15
  -4  -2  -2   41.72    1.97
   4   2   2   38.15    2.40
   4   2   2   42.01    2.11
   4   2   2   45.87    1.97
   4   2   2   40.05    1.82
  -4  -2  -3   74.42    3.28
  -4  -2  -3   77.04    2.40
  -4  -2  -3   84.10    2.69
  -4  -2  -3   76.82    2.62
   4   2   3   72.67    3.20
   4   2   3   77.77    2.55
   4   2   3   78.64    2.62
   4   2   3   67.94    2.40
  -4  -2  -4  285.22    6.12
  -4  -2  -4  285.07    4.81
  -4  -2  -4  299.20    4.95
   4   2   4  283.76    6.12
   4   2   4  275.97    4.22
   4   2   4  302.25    5.17
   4   2   4  314.34    5.17
  -4  -2  -5   35.68    2.62
  -4  -2  -5   35.39    2.18
  -4  -2  -5   42.01    2.04
  -4  -2  -5   35.02    1.89
   4   2   5   36.04    2.62
   4   2   5   35.90    1.60
  -4  -2  -6   70.34    3.50
  -4  -2  -6   72.74    3.13
  -4  -2  -6   81.63    2.62
  -4  -2  -6   77.98    2.55
   4   2   6   69.54    3.50
   4   2   6   72.67    1.82
  -4  -2  -7   51.12    3.20
  -4  -2  -7   47.33    2.91
  -4  -2  -7   52.72    2.04
  -4  -2  -7   49.73    1.97
   4   2   7   49.51    3.20
  -4  -2  -8   56.36    3.50
  -4  -2  -8   56.36    3.35
  -4  -2  -8   61.97    1.75
   4   2   8   56.14    3.57
  -4  -2  -9  149.56    5.39
  -4  -2  -9  133.47    5.10
   4   2   9  133.40    5.32
  -4  -2 -10   11.65    2.33
  -4  -2 -10    9.03    2.11
   4   2  10   10.78    2.33
  -4  -2 -11  261.26    7.35
  -4  -2 -11  264.10    7.65
   4   2  11  270.00    7.72
  -4  -2 -12   74.05    4.51
  -4  -2 -12   68.15    4.73
   4   2  12   72.67    4.66
  -4  -2 -13    1.24    2.04
  -4  -2 -13    0.58    1.97
   4   2  13    2.33    1.97
  -4  -2 -14   44.13    4.73
  -4  -2 -14   41.29    4.37
   4   2  14   50.02    4.59
  -4  -2 -15  128.52    7.06
  -4  -2 -15  117.60    6.33
   4   2  15  123.20    6.33
   4   2  15  126.33    6.84
  -4  -2 -16    3.93    2.84
  -4  -2 -16   -1.24    2.18
   4   2  16    0.44    2.40
  -3  -2  16    3.20    2.55
  -3  -2  15   29.85    3.86
  -3  -2  15   34.81    4.00
   3   2 -15   37.43    4.44
  -3  -2  14   60.95    4.37
  -3  -2  14   60.65    4.51
  -3  -2  14   62.98    4.51
   3   2 -14   57.16    4.66
   3   2 -14   66.26    4.95
   3   2 -14   68.37    6.41
  -3  -2  13   87.52    4.73
  -3  -2  13   86.87    4.51
  -3  -2  13   84.17    4.66
  -3  -2  13   92.11    4.88
   3   2 -13   83.30    4.88
   3   2 -13   94.00    5.17
   3   2 -13   89.13    5.02
   3   2 -13   89.13    4.88
  -3  -2  12   47.55    3.50
  -3  -2  12   43.40    3.50
  -3  -2  12   49.00    3.71
   3   2 -12   45.00    3.79
   3   2 -12   47.77    3.93
   3   2 -12   41.36    3.93
   3   2 -12   49.51    3.86
  -3  -2  11   38.30    3.13
  -3  -2  11   44.85    3.50
   3   2 -11   45.58    3.50
   3   2 -11   46.89    3.79
   3   2 -11   40.85    3.71
   3   2 -11   44.78    3.64
  -3  -2  10  160.99    5.02
  -3  -2  10  175.63    5.68
   3   2 -10  168.71    5.24
   3   2 -10  185.31    5.90
   3   2 -10  171.26    5.75
   3   2 -10  181.45    5.53
  -3  -2   9   60.44    3.13
  -3  -2   9   68.01    3.57
  -3  -2   9   68.66    2.84
   3   2  -9   64.22    3.28
   3   2  -9   68.52    3.71
   3   2  -9   60.87    3.64
   3   2  -9   66.84    3.50
  -3  -2   8   27.31    2.18
  -3  -2   8   34.00    2.62
  -3  -2   8   33.86    2.11
   3   2  -8   30.07    2.33
   3   2  -8   34.66    2.77
   3   2  -8   28.62    2.77
   3   2  -8   35.02    2.62
  -3  -2   7  225.07    4.59
  -3  -2   7  246.70    5.75
  -3  -2   7  235.48    4.59
   3   2  -7  222.09    5.68
   3   2  -7  233.37    5.17
  -3  -2   6  240.65    4.30
  -3  -2   6  273.49    5.75
  -3  -2   6  276.04    4.88
   3   2  -6  253.54    5.83
   3   2  -6  257.98    5.17
  -3  -2   5  118.25    3.28
   3   2  -5  102.01    3.79
   3   2  -5  109.00    3.35
  -3  -2   4 1289.33   10.19
   3   2  -4 1089.53   10.85
   3   2  -4 1117.27    9.68
  -3  -2   3  435.80    5.97
   3   2  -3  396.26    5.10
   3   2  -3  382.64    6.26
   3   2  -3  392.62    5.68
  -3  -2   2  307.28    5.10
   3   2  -2  296.50    4.59
   3   2  -2  289.58    5.24
  -3  -2   1  871.30    8.52
   3   2  -1  810.65    7.65
   3   2  -1  808.54    8.30
  -3  -2   0  208.03    4.37
  -3  -2   0  199.51    2.11
   3   2   0  200.46    4.08
   3   2   0  187.13    3.93
   3   2   0  208.18    2.84
   3   2   0  184.22    2.69
  -3  -2  -1  620.09    7.50
  -3  -2  -1  604.58    4.51
   3   2   1  613.25    7.21
   3   2   1  590.53    6.48
   3   2   1  644.56    5.75
   3   2   1  564.39    5.39
  -3  -2  -2 1402.41   11.43
  -3  -2  -2 1351.66    7.94
  -3  -2  -2  829.07    7.21
  -3  -2  -2 1413.84    9.39
   3   2   2 1355.81   11.14
   3   2   2 1329.96    9.10
   3   2   2 1437.15    9.25
   3   2   2 1183.97    8.37
  -3  -2  -3 1905.05   13.69
  -3  -2  -3 1835.95   10.56
  -3  -2  -3 1988.28   11.36
  -3  -2  -3 1872.58   11.00
   3   2   3 1812.80   13.40
   3   2   3 1836.03    9.98
   3   2   3 2004.37   11.50
  -3  -2  -4  458.81    6.99
  -3  -2  -4  469.29    6.04
  -3  -2  -4  521.94    5.83
  -3  -2  -4  488.51    5.68
   3   2   4  465.21    7.14
   3   2   4  465.43    4.73
   3   2   4  496.16    6.04
   3   2   4  481.52    5.97
  -3  -2  -5   23.08    2.04
  -3  -2  -5   20.75    1.82
  -3  -2  -5   23.37    1.46
  -3  -2  -5   20.83    1.38
   3   2   5   20.75    1.97
   3   2   5   20.32    1.09
  -3  -2  -6  169.95    4.66
  -3  -2  -6  168.20    4.44
  -3  -2  -6  180.00    3.20
  -3  -2  -6  175.56    3.13
   3   2   6  165.65    4.81
  -3  -2  -7  599.99    8.74
  -3  -2  -7  580.63    8.59
  -3  -2  -7  637.71    4.88
  -3  -2  -7  625.19    4.81
   3   2   7  606.69    9.17
  -3  -2  -8  310.19    6.63
  -3  -2  -8  300.07    6.70
   3   2   8  305.31    6.92
  -3  -2  -9  151.96    4.95
  -3  -2  -9  149.63    5.17
   3   2   9  154.59    5.32
  -3  -2 -10   29.27    2.84
  -3  -2 -10   31.09    3.28
   3   2  10   29.56    3.06
  -3  -2 -11  281.72    7.06
  -3  -2 -11  256.96    7.50
   3   2  11  266.50    7.35
  -3  -2 -12   82.06    4.88
  -3  -2 -12   80.90    4.59
   3   2  12   82.57    4.66
  -3  -2 -13   12.16    2.84
  -3  -2 -13   11.94    2.62
   3   2  13   13.47    2.62
  -3  -2 -14   68.96    5.32
  -3  -2 -14   77.91    5.02
   3   2  14   71.36    4.81
  -3  -2 -15    4.88    2.69
  -3  -2 -15    5.75    2.55
   3   2  15    7.06    2.40
  -3  -2 -16   12.96    3.50
  -3  -2 -16   15.87    3.64
  -2  -2  18   23.08    4.08
  -2  -2  17    2.77    2.48
  -2  -2  16   16.24    3.28
  -2  -2  16   22.79    3.64
   2   2 -16   19.37    3.71
  -2  -2  15    5.32    2.33
   2   2 -15    5.32    2.62
   2   2 -15    3.57    2.55
  -2  -2  14   35.46    3.79
   2   2 -14   37.28    4.15
   2   2 -14   37.57    4.22
  -2  -2  13   10.19    2.11
  -2  -2  13   14.71    2.48
  -2  -2  13   12.96    2.62
   2   2 -13   10.85    2.55
   2   2 -13   14.64    2.77
   2   2 -13   16.24    2.69
  -2  -2  12   74.34    3.86
  -2  -2  12   70.34    4.22
   2   2 -12   72.01    4.37
   2   2 -12   78.42    4.59
   2   2 -12   74.42    4.22
   2   2 -12   75.87    4.22
  -2  -2  11   92.40    4.00
  -2  -2  11   90.51    4.37
   2   2 -11   87.81    4.44
   2   2 -11  100.99    4.73
   2   2 -11   93.06    4.37
   2   2 -11   95.90    4.30
  -2  -2  10  133.91    4.37
  -2  -2  10  127.64    4.59
   2   2 -10  123.64    4.59
   2   2 -10  133.98    4.95
   2   2 -10  126.99    4.66
   2   2 -10  133.47    4.59
  -2  -2   9   86.29    3.64
  -2  -2   9   79.95    2.48
   2   2  -9   84.03    3.64
   2   2  -9   92.84    4.08
   2   2  -9   82.06    3.71
   2   2  -9   95.90    3.71
  -2  -2   8  188.23    4.73
  -2  -2   8  189.03    3.28
  -2  -2   8  210.58    5.32
  -2  -2   8  225.87    4.44
   2   2  -8  197.55    4.88
   2   2  -8  214.44    5.46
   2   2  -8  192.52    5.10
   2   2  -8  214.44    4.95
  -2  -2   7  318.78    5.53
  -2  -2   7  321.91    3.71
  -2  -2   7  356.87    6.55
  -2  -2   7  363.13    5.39
   2   2  -7  334.66    5.68
   2   2  -7  355.85    6.55
   2   2  -7  326.57    6.26
   2   2  -7  352.21    5.83
  -2  -2   6   26.50    1.75
  -2  -2   6   32.77    2.18
  -2  -2   6   31.67    1.82
   2   2  -6   32.18    1.97
   2   2  -6   33.28    2.33
   2   2  -6   27.67    2.26
   2   2  -6   29.78    1.97
  -2  -2   5  597.88    6.19
  -2  -2   5  670.48    8.01
  -2  -2   5  680.38    6.99
   2   2  -5  658.61    7.94
   2   2  -5  596.43    7.72
   2   2  -5  634.36    6.77
  -2  -2   4 1189.07   10.12
  -2  -2   4 1179.96    8.96
   2   2  -4 1071.98    9.83
   2   2  -4 1079.04    8.37
  -2  -2   3 2892.86   16.67
   2   2  -3 2723.49   10.78
   2   2  -3 2557.69   14.49
   2   2  -3 2705.22   19.00
  -2  -2   2  641.21    6.55
   2   2  -2  570.36    5.24
   2   2  -2  575.89    6.63
  -2  -2   1 1427.32    9.68
   2   2  -1 1307.17    8.30
   2   2  -1 1300.11    9.39
  -2  -2   0 1939.57   17.84
   2   2   0 1819.79   10.34
   2   2   0 1717.26   10.19
   2   2   0 1903.89   12.60
   2   2   0 1685.81   12.31
  -2  -2  -1 1191.40    9.17
  -2  -2  -1 1176.91    6.33
  -2  -2  -1 1230.57    7.57
  -2  -2  -1 1162.56    7.35
   2   2   1 1193.07    8.88
   2   2   1 1115.67    7.79
   2   2   1 1271.64    7.35
   2   2   1 1070.45    6.77
  -2  -2  -2  490.48    6.12
  -2  -2  -2  481.82    4.73
  -2  -2  -2  516.84    5.10
  -2  -2  -2  480.43    4.95
   2   2   2  482.11    6.04
   2   2   2  470.02    4.73
   2   2   2  534.90    5.17
   2   2   2  535.19    5.17
  -2  -2  -3   99.39    2.99
  -2  -2  -3   98.96    2.55
  -2  -2  -3  102.89    2.40
  -2  -2  -3   97.21    2.33
   2   2   3   95.68    2.99
   2   2   3   97.86    2.11
   2   2   3  100.34    2.48
   2   2   3  106.60    2.55
  -2  -2  -4  483.78    6.48
  -2  -2  -4  466.82    5.90
  -2  -2  -4  524.19    5.17
  -2  -2  -4  505.48    5.02
   2   2   4  477.45    6.70
   2   2   4  464.92    4.08
  -2  -2  -5  334.80    5.61
  -2  -2  -5  319.66    5.39
  -2  -2  -5  403.10    4.22
  -2  -2  -5  350.09    3.93
   2   2   5  346.16    5.97
   2   2   5  324.54    3.06
  -2  -2  -6    3.71    1.09
  -2  -2  -6    2.84    1.09
  -2  -2  -6    4.30    0.66
  -2  -2  -6    3.57    0.58
   2   2   6    2.55    1.09
  -2  -2  -7  159.68    4.30
  -2  -2  -7  156.92    4.59
   2   2   7  167.18    4.66
  -2  -2  -8  373.90    6.63
  -2  -2  -8  365.82    7.21
   2   2   8  375.51    7.21
  -2  -2  -9   29.64    2.40
  -2  -2  -9   27.82    2.77
   2   2   9   32.26    2.77
  -2  -2 -10   85.92    3.71
  -2  -2 -10   80.17    4.30
   2   2  10   86.87    4.15
  -2  -2 -11   13.40    2.11
  -2  -2 -11   10.05    2.33
  -2  -2 -11   12.45    2.18
   2   2  11   11.14    2.26
  -2  -2 -12  157.94    6.26
  -2  -2 -12  159.39    5.75
   2   2  12  173.15    5.97
  -2  -2 -13   43.25    4.15
  -2  -2 -13   47.11    3.79
   2   2  13   49.73    3.86
  -2  -2 -14   30.07    4.08
  -2  -2 -14   27.01    3.42
   2   2  14   29.27    3.50
  -2  -2 -15   21.70    3.86
  -2  -2 -15   19.81    3.28
   2   2  15   21.63    3.20
  -2  -2 -16   13.25    3.57
  -2  -2 -17   13.40    3.64
  -1  -2  18   18.13    4.08
  -1  -2  17   85.12    6.19
  -1  -2  16   18.93    3.50
   1   2 -16   15.44    3.50
   1   2 -16   16.82    3.42
  -1  -2  15   41.50    4.30
   1   2 -15   43.98    4.59
   1   2 -15   46.38    4.66
  -1  -2  14  125.31    5.90
   1   2 -14  138.35    6.41
   1   2 -14  142.94    6.26
  -1  -2  13  208.10    6.92
   1   2 -13  224.05    7.35
   1   2 -13  233.88    7.28
  -1  -2  12  103.98    4.88
   1   2 -12  108.28    5.17
   1   2 -12  118.69    5.17
   1   2 -12  114.03    4.51
  -1  -2  11   34.30    2.62
  -1  -2  11   32.62    2.99
  -1  -2  11   33.64    2.33
   1   2 -11   32.55    3.28
   1   2 -11   37.35    3.28
   1   2 -11   34.88    2.84
  -1  -2  10   10.70    1.67
  -1  -2  10   10.78    1.97
  -1  -2  10   10.63    1.46
   1   2 -10    8.30    1.97
   1   2 -10    9.83    1.97
   1   2 -10   10.70    1.82
   1   2 -10   12.31    1.89
  -1  -2   9  616.23    8.16
  -1  -2   9  613.90    6.04
  -1  -2   9  564.17    8.66
  -1  -2   9  558.13    6.84
   1   2  -9  577.35    8.81
   1   2  -9  613.68    9.17
   1   2  -9  567.01    8.16
   1   2  -9  628.97    8.30
  -1  -2   8   62.69    2.62
  -1  -2   8   61.02    1.60
  -1  -2   8   56.87    2.84
  -1  -2   8   57.89    2.18
   1   2  -8   57.38    2.91
   1   2  -8   60.44    3.13
   1   2  -8   53.59    2.69
   1   2  -8   66.48    2.84
  -1  -2   7  151.67    4.00
  -1  -2   7  150.73    3.06
   1   2  -7  153.86    4.08
   1   2  -7  163.61    4.44
   1   2  -7  151.02    4.00
   1   2  -7  171.99    3.86
  -1  -2   6   90.95    2.91
  -1  -2   6   94.80    2.26
   1   2  -6   94.73    3.06
   1   2  -6  100.99    3.35
   1   2  -6   92.40    3.13
   1   2  -6  106.53    2.84
  -1  -2   5   44.64    1.97
  -1  -2   5   40.92    1.38
   1   2  -5   44.34    2.04
   1   2  -5   47.98    2.33
   1   2  -5   41.14    2.18
   1   2  -5   45.73    1.82
  -1  -2   4   19.15    0.95
  -1  -2   4   21.99    1.60
   1   2  -4   21.77    1.67
   1   2  -4   20.53    1.60
   1   2  -4   25.27    1.38
  -1  -2   3 1854.01    9.83
  -1  -2   3 1973.06   15.07
  -1  -2   3 1981.29   10.49
   1   2  -3 1902.07   11.21
   1   2  -3 1730.88   10.70
   1   2  -3 1853.21    8.66
  -1  -2   2 3967.61   21.41
  -1  -2   2 4017.92   32.48
  -1  -2   2 3931.12   31.38
   1   2  -2 3677.88   18.86
   1   2  -2 3578.12   28.25
  -1  -2   1  162.45    2.26
  -1  -2   1  161.14    2.99
   1   2  -1  156.19    2.40
   1   2  -1  140.90    2.84
  -1  -2   0 2317.69   20.68
   1   2   0 2112.79   16.89
   1   2   0 2104.64   18.20
   1   2   0 2216.48   14.78
  -1  -2  -1 1516.22    9.03
  -1  -2  -1 1646.63   12.52
  -1  -2  -1 1568.65   13.69
   1   2   1 1523.21    8.74
   1   2   1 1428.55   11.58
   1   2   1 1546.73   11.50
   1   2   1 1598.79   11.80
  -1  -2  -2  583.90    5.75
  -1  -2  -2  567.66    5.10
  -1  -2  -2  622.93    4.95
  -1  -2  -2  577.06    4.73
   1   2   2  577.93    5.90
   1   2   2  555.87    4.59
   1   2   2  602.83    4.95
   1   2   2  506.35    4.51
  -1  -2  -3  781.96    6.92
  -1  -2  -3  754.80    6.63
  -1  -2  -3  839.48    5.68
  -1  -2  -3  770.89    5.39
   1   2   3  802.20    7.43
  -1  -2  -4  491.21    5.68
  -1  -2  -4  494.34    5.97
  -1  -2  -4  523.90    4.15
  -1  -2  -4  500.31    4.08
   1   2   4  513.20    6.33
  -1  -2  -5 2174.83   16.09
  -1  -2  -5 2236.65   13.76
   1   2   5 2310.92   14.20
  -1  -2  -6  232.50    4.37
  -1  -2  -6  233.37    4.95
   1   2   6  249.61    5.02
  -1  -2  -7  246.11    4.66
  -1  -2  -7  245.24    5.46
   1   2   7  249.46    5.32
  -1  -2  -8  669.53    7.86
  -1  -2  -8  660.36    9.39
   1   2   8  699.17    9.17
  -1  -2  -9  358.18    6.12
  -1  -2  -9  356.14    7.50
  -1  -2  -9  349.44    6.55
   1   2   9  383.73    7.21
  -1  -2 -10  387.23    6.63
  -1  -2 -10  377.84    8.16
  -1  -2 -10  368.15    7.14
   1   2  10  390.94    7.65
  -1  -2 -11  334.66    8.23
  -1  -2 -11  335.46    7.21
   1   2  11  362.84    7.72
  -1  -2 -12   40.63    3.86
  -1  -2 -12   42.16    3.35
   1   2  12   43.54    3.42
  -1  -2 -13    5.97    2.26
  -1  -2 -13    4.73    1.89
   1   2  13    5.97    1.89
  -1  -2 -14   43.83    4.37
  -1  -2 -14   40.19    3.71
   1   2  14   45.80    3.79
  -1  -2 -15   32.26    4.22
  -1  -2 -16   52.28    5.39
  -1  -2 -17   61.38    6.04
   0  -2  18   52.50    7.35
   0  -2  17   39.83    4.95
   0   2 -17   47.33    5.17
   0  -2  16    2.33    2.40
   0   2 -16    2.62    2.69
   0   2 -16    0.36    2.40
   0  -2  15   57.60    4.81
   0   2 -15   54.03    5.02
   0   2 -15   62.33    5.02
   0  -2  14    2.40    1.97
   0   2 -14    0.95    2.26
   0   2 -14    2.26    2.18
   0  -2  13  158.15    6.19
   0  -2  13  154.37    5.17
   0   2 -13  158.59    6.41
   0   2 -13  167.62    6.33
   0  -2  12  102.67    4.88
   0  -2  12  102.45    4.08
   0   2 -12  106.67    5.17
   0   2 -12  114.17    5.10
   0  -2  11    6.99    1.82
   0  -2  11    7.94    1.53
   0   2 -11    8.30    2.11
   0   2 -11    8.59    2.04
   0   2 -11    6.70    1.60
   0  -2  10   21.12    2.40
   0  -2  10   23.37    2.04
   0   2 -10   19.44    2.48
   0   2 -10   20.97    2.55
   0   2 -10   22.79    2.11
   0  -2   9  148.32    2.69
   0  -2   9  138.42    4.51
   0  -2   9  134.71    3.79
   0   2  -9  137.84    4.66
   0   2  -9  139.51    4.66
   0   2  -9  139.73    3.86
   0  -2   8  360.21    5.68
   0  -2   8  362.25    3.71
   0  -2   8  331.82    6.33
   0  -2   8  322.72    5.32
   0   2  -8  330.00    6.41
   0   2  -8  349.15    6.55
   0   2  -8  342.74    5.61
   0  -2   7  487.42    6.04
   0  -2   7  428.95    6.70
   0  -2   7  431.21    5.68
   0   2  -7  447.30    6.84
   0   2  -7  466.89    7.06
   0   2  -7  453.93    6.12
   0   2  -7  480.65    5.97
   0  -2   6  370.48    4.73
   0  -2   6  350.38    5.61
   0  -2   6  348.86    4.66
   0   2  -6  355.70    5.68
   0   2  -6  367.28    5.90
   0   2  -6  350.53    5.10
   0   2  -6  378.86    4.88
   0  -2   5 1299.96    7.86
   0  -2   5 1207.12    9.39
   0  -2   5 1199.99    7.86
   0   2  -5 1231.88    9.47
   0   2  -5 1314.09   10.27
   0   2  -5 1221.83    8.96
   0   2  -5 1353.70    8.01
   0  -2   4 2287.04   14.20
   0  -2   4 2317.04   14.27
   0   2  -4 2477.23   15.95
   0   2  -4 2346.17   11.72
   0   2  -4 2595.77   14.42
   0  -2   3 6854.86   36.55
   0   2  -3 7409.92   49.51
   0   2  -3 7108.03   45.73
   0   2  -3 7580.09   32.84
   0  -2   0 6048.73   34.73
   0  -2   0 6070.50   37.43
   0  -2   0 6301.25   35.10
   0  -2   0 6039.40   32.18
   0   2   0 5947.37   31.46
   0   2   0 5931.35   28.18
   0  -2  -1 1599.16   14.71
   0  -2  -1 1682.90   11.21
   0  -2  -1 1609.28   11.50
   0   2   1 1571.34    9.54
   0   2   1   -0.07    0.07
   0  -2  -2 5209.90   33.93
   0  -2  -2 5621.59   29.34
   0  -2  -2 5006.75   28.32
   0   2   2 5410.58   38.23
   0  -2  -3 1239.96    7.28
   0  -2  -3 1186.95    8.16
   0  -2  -3 1331.49    8.66
   0  -2  -3 1216.37    8.52
   0   2   3 1277.83    8.59
   0  -2  -4  146.79    2.69
   0  -2  -4  143.45    3.28
   0   2   4  152.26    3.35
   0  -2  -5  122.11    2.62
   0  -2  -5  120.73    3.35
   0   2   5  121.46    3.20
   0  -2  -6  153.71    3.13
   0  -2  -6  154.00    4.00
   0   2   6  160.27    3.93
   0  -2  -7  513.34    5.83
   0  -2  -7  511.96    7.65
   0  -2  -7  491.72    6.33
   0   2   7  538.32    7.35
   0  -2  -8  170.53    3.64
   0  -2  -8  163.25    4.81
   0  -2  -8  154.88    3.93
   0   2   8  177.01    4.59
   0  -2  -9   56.29    3.35
   0  -2  -9   55.56    2.69
   0   2   9   59.27    3.06
   0  -2 -10  204.97    6.12
   0  -2 -10  207.09    5.17
   0   2  10  218.37    5.61
   0  -2 -11  231.92    6.84
   0  -2 -11  228.93    5.75
   0   2  11  250.12    6.26
   0  -2 -12  264.75    7.72
   0  -2 -12  264.97    6.55
   0   2  12  290.68    6.99
   0  -2 -13  101.36    5.53
   0  -2 -13  100.92    4.59
   0   2  13  115.19    4.88
   0  -2 -14   32.26    4.08
   0  -2 -14   32.69    3.35
   0   2  14   29.85    3.28
   0  -2 -15    5.10    2.55
   0  -2 -16   35.53    4.66
   0  -2 -17    9.32    3.35
  -1   2 -18   49.44    5.53
   1  -2  17  121.60    7.21
  -1   2 -17  128.66    7.06
   1  -2  16  199.29    8.23
  -1   2 -16  202.50    8.45
  -1   2 -16  218.59    8.30
   1  -2  15   95.68    5.83
   1  -2  15   86.72    5.24
  -1   2 -15   98.96    6.12
  -1   2 -15   98.88    5.83
   1  -2  14   50.10    4.44
   1  -2  14   45.36    3.57
  -1   2 -14   49.44    4.66
  -1   2 -14   56.14    4.51
   1  -2  13   55.70    4.22
   1  -2  13   50.02    3.42
  -1   2 -13   54.98    4.37
  -1   2 -13   56.21    4.30
   1  -2  12   89.71    4.66
   1  -2  12   90.22    4.08
  -1   2 -12   90.95    4.88
  -1   2 -12   95.02    4.88
   1  -2  11   18.86    2.69
   1  -2  11   15.36    2.04
  -1   2 -11   16.60    2.62
  -1   2 -11   16.31    2.48
   1  -2  10  154.22    3.28
   1  -2  10  138.28    4.95
   1  -2  10  135.44    4.37
  -1   2 -10  141.77    5.10
  -1   2 -10  145.27    5.02
  -1   2 -10  150.14    3.79
   1  -2   9  194.49    3.42
   1  -2   9  184.66    5.24
   1  -2   9  179.42    4.66
  -1   2  -9  178.61    5.24
  -1   2  -9  185.60    5.24
  -1   2  -9  195.00    4.08
   1  -2   8   83.88    2.11
   1  -2   8   77.33    3.35
   1  -2   8   76.02    2.99
  -1   2  -8   75.44    3.42
  -1   2  -8   77.18    3.35
  -1   2  -8   79.37    2.55
   1  -2   7  340.19    3.71
   1  -2   7  330.00    6.04
   1  -2   7  320.02    5.32
  -1   2  -7  331.67    6.12
  -1   2  -7  342.81    6.12
  -1   2  -7  339.75    4.73
   1  -2   6  186.19    2.48
   1  -2   6  171.41    4.08
   1  -2   6  170.02    3.64
  -1   2  -6  177.81    4.22
  -1   2  -6  182.33    4.30
  -1   2  -6  174.68    3.28
   1  -2   5  134.12    1.82
   1  -2   5  128.81    3.28
   1  -2   5  123.06    2.91
  -1   2  -5  126.70    3.28
  -1   2  -5  133.40    3.42
  -1   2  -5  125.10    2.69
   1  -2   4 2115.85   10.12
   1  -2   4 2018.94   11.43
   1  -2   4 2043.18   12.74
  -1   2  -4 2251.07   13.18
  -1   2  -4 2076.24   11.72
  -1   2  -4 2105.51   15.36
   1  -2   3  373.54    4.15
  -1   2  -3  402.74    3.71
  -1   2  -3  378.78    4.59
   1  -2   2   63.13    1.67
  -1   2  -2   66.41    1.60
   1  -2   1  797.03    5.17
  -1   2  -1  848.95    5.32
  -1   2  -1  807.08    5.10
  -1   2  -1  864.82    5.17
  -1   2  -1  753.78    6.26
   1  -2   0  772.13    5.10
   1  -2   0  816.98    3.71
   1  -2   0  817.42    4.30
   1  -2   0  780.72    6.26
  -1   2   0  823.03    5.32
  -1   2   0  789.24    3.64
  -1   2   0  805.99    4.30
  -1   2   0  746.72    5.10
   1  -2  -1 1327.92   13.18
   1  -2  -1 1288.17    8.37
   1  -2  -1 1292.39    7.79
   1  -2  -1 1297.85   11.07
  -1   2   1 1259.33    6.55
  -1   2   1 1242.58    7.28
  -1   2   1 1292.61    6.41
  -1   2   1 1267.27   10.34
   1  -2  -2 7924.07   46.24
   1  -2  -2 7867.06   43.83
   1  -2  -2 9049.35   31.67
  -1   2   2 8052.37   40.99
  -1   2   2 7599.17   43.25
   1  -2  -3 9902.96   58.25
   1  -2  -3 9925.09   57.60
   1  -2  -4   90.58    1.67
   1  -2  -4   90.00    2.62
   1  -2  -4   87.96    2.62
  -1   2   4   97.13    1.97
  -1   2   4   94.22    2.62
   1  -2  -5  442.79    3.86
   1  -2  -5  448.32    6.04
   1  -2  -5  451.23    4.51
  -1   2   5  496.09    4.22
  -1   2   5  480.80    6.26
  -1   2   5  474.32    5.90
   1  -2  -6 1472.39    7.50
   1  -2  -6 1483.24   11.87
   1  -2  -6 1428.99    8.96
  -1   2   6 1494.31   11.87
  -1   2   6 1537.27   11.29
   1  -2  -7  237.81    3.35
   1  -2  -7  240.00    5.32
   1  -2  -7  225.87    4.00
  -1   2   7  249.17    5.32
  -1   2   7  248.95    4.95
   1  -2  -8   24.54    2.33
   1  -2  -8   22.86    1.75
  -1   2   8   23.16    1.97
   1  -2  -9  305.09    6.77
   1  -2  -9  291.48    5.39
  -1   2   9  313.25    6.12
   1  -2 -10   84.32    4.08
   1  -2 -10   75.65    3.20
  -1   2  10   86.14    3.57
   1  -2 -11    7.50    2.11
   1  -2 -11    7.28    1.60
  -1   2  11    7.86    1.67
   1  -2 -12   89.49    4.88
   1  -2 -12   96.70    4.15
  -1   2  12  105.29    4.37
   1  -2 -13   61.97    4.66
   1  -2 -13   56.21    3.64
  -1   2  13   67.94    3.86
   1  -2 -14   13.40    2.99
  -1   2  14   16.24    2.77
   1  -2 -15   46.16    4.88
   1  -2 -16  108.93    6.63
   1  -2 -17   97.86    6.92
  -2   2 -18   12.52    3.64
   2  -2  17    4.66    2.99
  -2   2 -17    6.04    2.91
   2  -2  16   37.14    4.81
   2  -2  16   35.75    3.93
  -2   2 -16   33.35    4.73
  -2   2 -16   41.14    4.81
   2  -2  15    3.86    2.48
   2  -2  15    4.51    1.97
  -2   2 -15    2.62    2.55
  -2   2 -15    5.46    2.48
   2  -2  14   27.82    3.71
   2  -2  14   26.36    3.20
  -2   2 -14   32.11    4.08
  -2   2 -14   31.97    3.86
   2  -2  13  101.58    5.39
   2  -2  13  105.00    4.88
  -2   2 -13  108.06    5.75
  -2   2 -13  117.30    5.61
   2  -2  12  251.79    7.43
   2  -2  12  252.96    6.84
  -2   2 -12  259.95    7.65
  -2   2 -12  281.50    7.65
   2  -2  11  216.19    6.55
   2  -2  11  221.14    6.12
  -2   2 -11  230.53    6.84
  -2   2 -11  243.42    6.77
   2  -2  10  213.20    4.22
   2  -2  10  199.59    5.90
   2  -2  10  186.26    5.32
  -2   2 -10  205.85    6.12
  -2   2 -10  202.93    5.90
   2  -2   9   60.51    2.26
   2  -2   9   57.09    3.20
   2  -2   9   53.30    2.91
  -2   2  -9   60.65    3.42
  -2   2  -9   59.85    3.35
  -2   2  -9   61.16    2.18
   2  -2   8  170.97    3.35
   2  -2   8  158.44    4.66
   2  -2   8  156.26    4.37
  -2   2  -8  161.87    4.81
  -2   2  -8  163.40    4.73
  -2   2  -8  161.14    3.06
   2  -2   7  505.41    5.32
   2  -2   7  476.65    7.35
   2  -2   7  466.38    6.92
  -2   2  -7  494.85    7.57
  -2   2  -7  495.14    7.43
  -2   2  -7  485.16    4.95
   2  -2   6  158.01    2.84
   2  -2   6  150.14    3.93
   2  -2   6  150.14    3.79
  -2   2  -6  155.97    4.08
  -2   2  -6  162.23    4.15
  -2   2  -6  155.61    2.77
   2  -2   5  114.61    2.26
   2  -2   5  115.41    3.28
   2  -2   5  108.35    2.99
  -2   2  -5  130.48    2.18
  -2   2  -5  115.63    3.28
  -2   2  -5  113.74    3.20
  -2   2  -5  119.78    2.33
   2  -2   4  141.92    2.33
   2  -2   4  135.44    3.20
   2  -2   4  137.18    3.13
  -2   2  -4  154.37    2.40
   2  -2   3 1231.15    9.25
   2  -2   3 1171.01    8.08
  -2   2  -3 1318.46    6.84
   2  -2   2 4733.84   34.37
  -2   2  -2 5243.39   31.02
  -2   2  -2 4873.13   31.24
  -2   2  -2 5305.14   25.27
  -2   2  -2 4772.06   25.70
   2  -2   1 1503.04    9.83
   2  -2   1 1584.81    9.54
   2  -2   1 1392.36    8.23
  -2   2  -1 1581.83   11.43
  -2   2  -1 1506.90    7.14
  -2   2  -1 1681.08   11.29
  -2   2  -1 1459.35   11.07
   2  -2   0 5650.57   34.81
   2  -2   0 5792.05   30.58
   2  -2   0 6153.94   29.85
   2  -2   0 5642.35   31.02
  -2   2   0 5770.65   34.88
  -2   2   0 5724.48   25.41
  -2   2   0 6150.52   29.93
  -2   2   0 5037.25   29.64
   2  -2  -1 9849.88   47.48
  -2   2   1 9864.73   49.59
   2  -2  -3 7670.75   45.15
   2  -2  -3 7756.52   49.73
  -2   2   3 7330.05   39.90
   2  -2  -4 2381.26   15.66
   2  -2  -4 2400.78   12.82
   2  -2  -4 2609.17   21.84
  -2   2   4 2479.85   15.51
   2  -2  -5 1256.86    9.98
   2  -2  -5 1214.26    6.63
   2  -2  -5 1378.75   10.70
  -2   2   5 1334.99    7.72
   2  -2  -6  369.17    5.97
   2  -2  -6  349.88    4.15
   2  -2  -6  385.12    6.19
  -2   2   6  384.32    4.22
  -2   2   6  374.70    6.12
   2  -2  -7  472.57    7.28
   2  -2  -7  465.72    5.39
   2  -2  -7  486.33    7.43
  -2   2   7  502.71    4.81
  -2   2   7  473.59    7.35
  -2   2   7  482.11    6.70
   2  -2  -8  337.28    6.63
   2  -2  -8  336.62    5.02
   2  -2  -8  346.96    6.77
  -2   2   8  348.13    6.70
  -2   2   8  357.01    6.12
   2  -2  -9  144.39    4.73
   2  -2  -9  148.32    3.79
   2  -2  -9  153.71    4.95
  -2   2   9  151.82    4.88
  -2   2   9  157.79    4.37
   2  -2 -10   18.93    2.48
   2  -2 -10   20.97    2.04
  -2   2  10   21.19    2.48
  -2   2  10   24.68    2.26
   2  -2 -11    7.72    2.11
   2  -2 -11   10.41    1.82
  -2   2  11    7.35    1.97
  -2   2  11    9.76    1.75
   2  -2 -12  112.13    5.24
   2  -2 -12  115.19    4.30
  -2   2  12  119.42    4.51
   2  -2 -13  162.89    6.63
  -2   2  13  166.75    5.46
   2  -2 -14    0.22    2.11
   2  -2 -15   55.63    5.10
   2  -2 -16    3.42    2.69
   2  -2 -17   42.23    5.24
  -3   2 -18   22.79    4.37
   3  -2  17   22.65    4.15
   3  -2  17   16.38    3.28
  -3   2 -17   27.82    4.37
   3  -2  16   40.41    5.02
   3  -2  16   32.99    4.00
  -3   2 -16   38.88    4.59
   3  -2  15   27.67    4.08
   3  -2  15   25.27    3.50
  -3   2 -15   31.82    4.37
  -3   2 -15   33.64    4.22
   3  -2  14    2.11    2.18
   3  -2  14    0.87    1.67
  -3   2 -14    1.53    2.18
  -3   2 -14    2.48    2.11
   3  -2  13    2.40    1.89
   3  -2  13    5.68    2.04
  -3   2 -13    6.41    2.33
  -3   2 -13    6.19    2.26
   3  -2  12  289.66    8.08
   3  -2  12  290.09    7.65
  -3   2 -12  309.32    8.37
  -3   2 -12  308.37    8.16
   3  -2  11   67.43    2.99
   3  -2  11   61.53    3.93
   3  -2  11   54.83    3.64
  -3   2 -11   59.20    4.00
  -3   2 -11   65.10    4.08
   3  -2  10   48.57    2.48
   3  -2  10   45.65    3.28
   3  -2  10   45.95    3.20
  -3   2 -10   49.22    3.50
  -3   2 -10   49.88    3.50
   3  -2   9  467.62    6.48
   3  -2   9  431.14    8.16
   3  -2   9  419.12    7.79
  -3   2  -9  437.11    8.30
  -3   2  -9  440.09    8.23
   3  -2   8  351.99    5.39
   3  -2   8  328.98    6.77
   3  -2   8  315.87    6.41
  -3   2  -8  347.25    6.99
  -3   2  -8  335.09    6.77
  -3   2  -8  358.32    3.86
   3  -2   7  448.83    5.75
   3  -2   7  422.69    7.14
   3  -2   7  421.02    6.99
  -3   2  -7  437.18    7.28
  -3   2  -7  450.94    4.22
   3  -2   6   49.95    2.04
   3  -2   6   48.79    2.48
   3  -2   6   50.61    2.55
  -3   2  -6   54.10    1.67
  -3   2  -6   53.08    2.62
  -3   2  -6   44.78    2.55
   3  -2   5  620.31    6.12
   3  -2   5  620.09    7.43
   3  -2   5  599.63    7.35
  -3   2  -5  663.05    5.46
  -3   2  -5  603.78    7.50
   3  -2   4   31.75    1.53
   3  -2   4   29.34    1.75
  -3   2  -4   32.33    1.46
  -3   2  -4   29.49    1.89
  -3   2  -4   35.90    0.95
  -3   2  -4   37.94    0.95
   3  -2   3 1323.85    8.30
   3  -2   3 1311.47    9.47
  -3   2  -3 1414.79    8.23
  -3   2  -3 1384.86    9.25
  -3   2  -3 1550.52    6.99
   3  -2   2  483.71    4.95
   3  -2   2  476.50    5.32
   3  -2   2  550.99    4.95
   3  -2   2  458.44    4.30
  -3   2  -2  515.02    5.10
  -3   2  -2  533.22    4.37
  -3   2  -2  484.87    4.15
   3  -2   1 5200.14   37.14
   3  -2   1 5595.09   29.78
   3  -2   1 4947.62   32.04
  -3   2  -1 5209.97   32.62
  -3   2  -1 5779.24   30.22
  -3   2  -1 5033.25   31.60
   3  -2   0 1963.89   14.71
   3  -2   0 1893.99   13.03
   3  -2   0 2117.38    8.16
   3  -2   0 1946.05   15.07
  -3   2   0 1938.33   10.05
  -3   2   0 2155.83    8.59
  -3   2   0 1871.78   12.96
   3  -2  -1 4211.10   28.54
   3  -2  -1 4127.29   29.93
   3  -2  -1 3952.10   18.42
   3  -2  -1 4305.98   23.66
  -3   2   1 4000.81   27.67
   3  -2  -2 3907.61   28.47
   3  -2  -2 3620.50   25.56
  -3   2   2 3591.52   20.17
   3  -2  -3  308.95    3.79
   3  -2  -3  289.58    4.51
  -3   2   3  283.90    4.08
   3  -2  -4 1832.75   10.92
   3  -2  -4 1891.07   12.23
  -3   2   4 1796.78   10.19
   3  -2  -5 2064.66   12.67
   3  -2  -5 2148.04   11.43
   3  -2  -5 2102.60   13.76
  -3   2   5 2034.52   11.00
  -3   2   5 2169.37   13.62
   3  -2  -6  114.54    3.50
   3  -2  -6  111.70    2.40
   3  -2  -6  111.19    3.64
  -3   2   6  110.17    2.77
   3  -2  -7  602.47    8.08
   3  -2  -7  636.04    6.12
   3  -2  -7  658.10    8.88
  -3   2   7  621.84    6.26
   3  -2  -8   27.60    2.48
   3  -2  -8   24.83    1.75
   3  -2  -8   26.14    2.48
  -3   2   8   26.65    1.67
  -3   2   8   24.03    2.26
   3  -2  -9   78.28    3.71
   3  -2  -9   79.22    2.84
   3  -2  -9   81.92    3.93
  -3   2   9   81.41    2.40
  -3   2   9   81.41    3.71
  -3   2   9   79.30    3.28
   3  -2 -10  265.26    6.70
   3  -2 -10  274.66    5.32
   3  -2 -10  278.81    6.99
  -3   2  10  274.88    6.84
  -3   2  10  279.75    6.04
   3  -2 -11   62.33    4.00
   3  -2 -11   72.23    3.28
   3  -2 -11   62.26    4.15
  -3   2  11   70.34    4.08
  -3   2  11   68.52    3.42
   3  -2 -12  384.17    8.96
  -3   2  12  411.19    9.25
  -3   2  12  403.18    7.79
   3  -2 -13   56.72    4.44
  -3   2  13   72.16    4.59
  -3   2  13   64.59    3.71
   3  -2 -14  167.26    6.92
   3  -2 -15    8.01    2.77
   3  -2 -16   45.29    5.10
   3  -2 -17    1.67    2.77
   4  -2  18   20.17    3.93
   4  -2  17    0.58    2.48
   4  -2  17    2.55    2.26
  -4   2 -17    3.06    2.69
   4  -2  16   19.30    3.79
   4  -2  16   22.14    3.64
  -4   2 -16   20.02    3.79
   4  -2  15    3.06    2.48
   4  -2  15    1.02    1.82
  -4   2 -15    4.81    2.55
   4  -2  14   33.28    4.15
   4  -2  14   30.00    3.71
  -4   2 -14   32.26    4.15
  -4   2 -14   36.19    4.30
   4  -2  13   14.20    2.91
   4  -2  13   11.50    2.48
  -4   2 -13   13.54    2.99
  -4   2 -13   14.27    2.91
   4  -2  12   71.50    4.59
   4  -2  12   70.19    4.37
  -4   2 -12   69.03    4.66
  -4   2 -12   78.13    4.81
   4  -2  11   93.06    3.79
   4  -2  11   89.78    4.66
   4  -2  11   86.87    4.51
  -4   2 -11   94.95    4.88
  -4   2 -11   93.79    4.88
   4  -2  10  135.36    4.22
   4  -2  10  129.61    5.10
   4  -2  10  124.44    4.95
  -4   2 -10  133.32    5.24
  -4   2 -10  129.54    5.24
   4  -2   9   88.69    3.35
   4  -2   9   87.16    4.08
   4  -2   9   85.48    4.00
  -4   2  -9   95.02    4.22
  -4   2  -9   85.27    4.08
   4  -2   8  190.77    4.51
   4  -2   8  187.50    5.32
   4  -2   8  183.42    5.32
  -4   2  -8  192.81    5.46
  -4   2  -8  187.28    5.39
   4  -2   7  338.73    5.68
   4  -2   7  327.52    6.48
   4  -2   7  319.73    6.48
  -4   2  -7  358.18    4.51
  -4   2  -7  324.61    6.63
  -4   2  -7  361.53    3.42
   4  -2   6   26.36    1.82
   4  -2   6   25.05    2.11
   4  -2   6   25.78    2.18
  -4   2  -6   26.80    1.60
  -4   2  -6   26.50    2.26
   4  -2   5  603.12    6.99
   4  -2   5  595.04    7.57
   4  -2   5  591.18    7.86
  -4   2  -5  634.58    6.26
  -4   2  -5  683.66    4.66
  -4   2  -5  668.51    4.66
   4  -2   4 1057.63    8.96
   4  -2   4 1026.54    9.68
  -4   2  -4 1074.89    8.23
  -4   2  -4 1154.99    7.06
  -4   2  -4 1165.91    7.06
   4  -2   3 2673.90   17.48
   4  -2   3 2684.75   18.57
  -4   2  -3 2775.48   13.33
  -4   2  -3 2955.92   17.40
  -4   2  -3 2622.50   15.29
   4  -2   2  555.43    6.26
   4  -2   2  559.44    6.33
   4  -2   2    0.51    0.22
   4  -2   2  535.84    5.24
  -4   2  -2  582.88    6.26
  -4   2  -2  634.95    5.61
  -4   2  -2  569.99    5.32
   4  -2   1 1259.26    8.88
   4  -2   1 1366.30    7.94
   4  -2   1 1182.80    7.35
  -4   2  -1 1283.87    9.32
  -4   2  -1 1310.88    9.25
  -4   2  -1 1324.43    7.94
  -4   2  -1   -0.07    0.07
   4  -2   0 1799.84    9.90
   4  -2   0 1812.94    8.37
   4  -2   0 1705.32   11.00
  -4   2   0 1771.07   11.00
  -4   2   0 1815.71   10.12
   4  -2  -1 1194.16    7.72
   4  -2  -1 1169.84    8.96
   4  -2  -1 1167.59    5.53
   4  -2  -1 1252.49    7.86
  -4   2   1 1175.67    9.10
  -4   2   1 1179.60    7.57
   4  -2  -2  503.73    4.88
   4  -2  -2  472.64    5.97
  -4   2   2  473.15    5.90
  -4   2   2  474.24    4.37
   4  -2  -3  106.16    2.33
   4  -2  -3   94.95    3.06
  -4   2   3   95.75    2.91
   4  -2  -4  536.65    5.17
   4  -2  -4  503.08    5.83
   4  -2  -4  522.30    6.99
  -4   2   4  479.05    6.12
   4  -2  -5  351.70    5.32
   4  -2  -5  349.29    6.12
  -4   2   5  338.66    5.24
   4  -2  -6    2.48    1.09
   4  -2  -6    4.73    1.38
  -4   2   6    2.91    0.95
   4  -2  -7  168.27    4.44
   4  -2  -7  173.59    4.95
  -4   2   7  173.30    3.93
  -4   2   7  181.31    3.42
   4  -2  -8  378.20    6.84
   4  -2  -8  405.87    5.53
   4  -2  -8  396.40    7.65
  -4   2   8  397.93    5.83
  -4   2   8  397.64    5.39
   4  -2  -9   28.03    2.69
   4  -2  -9   31.89    2.04
   4  -2  -9   27.89    2.99
  -4   2   9   29.49    2.04
  -4   2   9   28.25    1.89
   4  -2 -10   83.08    4.15
   4  -2 -10   89.05    3.28
   4  -2 -10   86.94    4.51
  -4   2  10   83.59    4.22
  -4   2  10   88.25    3.13
   4  -2 -11   10.63    2.26
   4  -2 -11   10.70    2.55
  -4   2  11   13.40    2.55
  -4   2  11   11.72    1.97
   4  -2 -12  167.11    6.12
   4  -2 -12  173.52    6.63
  -4   2  12  168.86    6.26
  -4   2  12  174.54    5.39
   4  -2 -13   47.62    4.22
   4  -2 -13   48.71    4.51
  -4   2  13   48.06    4.08
   4  -2 -14   33.79    4.15
  -4   2  14   34.73    3.93
   4  -2 -15   23.59    3.79
  -4   2  15   28.47    4.15
   4  -2 -16   10.56    3.28
   4  -2 -17   13.03    3.64
   5  -2  17    1.75    2.33
  -5   2 -17    2.69    2.77
   5  -2  16   34.00    4.66
   5  -2  16   38.30    4.51
  -5   2 -16   33.20    4.44
   5  -2  15    6.12    2.69
   5  -2  15    7.65    2.62
  -5   2 -15   10.19    3.13
   5  -2  14   24.17    3.79
   5  -2  14   23.45    3.64
  -5   2 -14   21.55    3.57
   5  -2  13   93.93    5.53
   5  -2  13   88.98    5.24
  -5   2 -13   89.42    5.46
   5  -2  12  135.65    4.95
   5  -2  12  139.22    6.12
   5  -2  12  126.33    5.83
  -5   2 -12  147.30    6.33
   5  -2  11  180.65    5.39
   5  -2  11  167.26    6.19
   5  -2  11  170.31    6.26
  -5   2 -11  174.10    6.48
   5  -2  10  330.00    6.92
   5  -2  10  316.74    7.86
   5  -2  10  299.71    7.79
  -5   2 -10  319.22    8.01
   5  -2   9  145.34    4.59
   5  -2   9  146.21    5.17
   5  -2   9  144.68    5.32
  -5   2  -9  144.83    5.39
   5  -2   8  172.35    4.73
   5  -2   8  168.27    5.17
   5  -2   8  159.83    5.24
  -5   2  -8  180.87    3.71
  -5   2  -8  169.80    5.46
   5  -2   7    6.33    1.38
   5  -2   7    5.39    1.53
   5  -2   7    5.10    1.53
  -5   2  -7    6.92    1.24
   5  -2   6 1055.30   10.70
   5  -2   6 1031.57   11.58
  -5   2  -6 1131.69    9.39
  -5   2  -6 1194.67    7.06
  -5   2  -6 1173.77    6.99
   5  -2   5 1775.30   13.40
   5  -2   5 1740.71   14.27
  -5   2  -5 1876.66   12.23
  -5   2  -5 1961.41   10.27
  -5   2  -5 1976.99   10.34
   5  -2   4 1277.39   11.14
   5  -2   4 1269.82   11.58
   5  -2   4 1395.64   15.00
  -5   2  -4 1345.03   10.49
  -5   2  -4 1326.10   11.94
  -5   2  -4 1440.13    9.32
  -5   2  -4 1400.74    9.17
   5  -2   3 1369.65   11.29
   5  -2   3 1345.54   11.21
   5  -2   3 1300.04    9.32
  -5   2  -3 1414.72   10.85
  -5   2  -3 1423.97   11.87
  -5   2  -3 1473.12    9.61
  -5   2  -3 1355.88    9.17
   5  -2   2  199.73    4.37
   5  -2   2  203.52    4.22
   5  -2   2  229.59    3.86
   5  -2   2  198.78    3.57
  -5   2  -2  209.20    4.37
  -5   2  -2  211.02    4.51
  -5   2  -2  216.48    3.71
  -5   2  -2  204.46    3.64
   5  -2   1  701.79    7.21
   5  -2   1  765.36    6.48
   5  -2   1  669.39    6.04
  -5   2  -1  733.83    8.01
  -5   2  -1  733.24    7.79
  -5   2  -1  745.99    6.70
  -5   2  -1  696.98    6.48
   5  -2   0  590.38    6.26
   5  -2   0  601.23    5.24
   5  -2   0  596.21    5.17
  -5   2   0  628.39    7.50
  -5   2   0  618.71    6.77
   5  -2  -1  606.26    5.97
   5  -2  -1  571.67    7.21
   5  -2  -1  601.67    4.22
   5  -2  -1  601.60    4.22
  -5   2   1  596.35    7.43
  -5   2   1  584.63    6.26
   5  -2  -2 1243.53    8.16
   5  -2  -2 1182.37   10.49
  -5   2   2 1178.36   10.41
  -5   2   2 1193.94    8.30
   5  -2  -3 2185.32   10.41
   5  -2  -3 2064.59   14.34
  -5   2   3 2030.88   13.76
  -5   2   3 2071.36   10.05
   5  -2  -4  596.50    5.46
   5  -2  -4  583.25    6.26
   5  -2  -4  556.89    7.86
  -5   2   4  537.52    7.21
  -5   2   4  552.74    4.73
   5  -2  -5  352.86    5.32
   5  -2  -5  347.33    6.55
  -5   2   5  326.43    5.75
  -5   2   5  343.61    3.28
   5  -2  -6  244.66    4.81
   5  -2  -6  240.73    5.75
  -5   2   6  234.75    5.02
   5  -2  -7   86.36    3.28
   5  -2  -7   93.13    4.08
  -5   2   7   84.10    3.28
   5  -2  -8  470.38    7.57
   5  -2  -8  495.94    8.88
  -5   2   8  474.75    7.14
   5  -2  -9   29.64    2.77
   5  -2  -9   33.06    3.28
  -5   2   9   25.19    2.33
   5  -2 -10  255.87    6.55
   5  -2 -10  279.83    7.57
  -5   2  10  255.80    5.53
   5  -2 -11  496.52    9.39
   5  -2 -11  574.29   11.07
   5  -2 -12   27.52    3.28
   5  -2 -12   36.33    4.08
  -5   2  12   30.22    3.64
  -5   2  12   31.09    2.91
   5  -2 -13    9.39    2.62
   5  -2 -13    8.52    2.77
  -5   2  13   12.16    2.77
   5  -2 -14    1.75    2.18
   5  -2 -14    2.48    2.40
  -5   2  14    3.57    2.33
   5  -2 -15   49.95    4.81
  -5   2  15   51.92    4.81
   5  -2 -16   16.31    3.64
  -5   2  16   15.00    3.42
   5  -2 -17   12.89    3.57
   6  -2  16    6.12    2.77
  -6   2 -16   14.78    3.71
   6  -2  15   25.41    4.08
   6  -2  15   19.22    3.50
  -6   2 -15   24.10    4.00
   6  -2  14    1.75    2.18
   6  -2  14    2.91    2.04
  -6   2 -14    3.35    2.40
   6  -2  13    6.26    2.40
   6  -2  13    6.12    2.26
  -6   2 -13    8.52    2.77
   6  -2  12  172.57    5.90
   6  -2  12  174.17    6.84
   6  -2  12  161.07    6.70
  -6   2 -12  167.40    6.92
   6  -2  11   69.17    4.00
   6  -2  11   70.12    4.51
   6  -2  11   66.26    4.59
  -6   2 -11   60.95    4.59
   6  -2  10   85.34    4.15
   6  -2  10   93.64    4.73
   6  -2  10   83.45    4.66
  -6   2 -10   88.54    4.95
   6  -2   9  555.72    9.32
   6  -2   9  570.43   10.05
   6  -2   9  551.94   10.41
  -6   2  -9  559.07   10.49
   6  -2   8   30.95    2.69
   6  -2   8   30.87    2.99
  -6   2  -8   34.00    2.33
   6  -2   7  559.95    8.81
   6  -2   7  557.98    9.54
  -6   2  -7  593.44    7.65
  -6   2  -7  644.34    5.61
  -6   2  -7  614.78    5.46
   6  -2   6  676.74    9.47
   6  -2   6  678.20    9.98
  -6   2  -6  721.16    8.52
  -6   2  -6  769.00    7.06
  -6   2  -6  752.83    6.99
   6  -2   5   81.48    3.50
   6  -2   5   88.62    3.71
  -6   2  -5   92.18    3.35
  -6   2  -5   97.06    4.00
  -6   2  -5   99.47    2.84
  -6   2  -5   96.70    2.84
   6  -2   4  419.19    7.14
   6  -2   4  434.78    7.28
   6  -2   4  454.44    6.26
   6  -2   4  452.25    6.26
  -6   2  -4  446.72    6.92
  -6   2  -4  440.75    7.57
  -6   2  -4  451.16    5.90
  -6   2  -4  505.04    6.26
   6  -2   3  105.87    3.71
   6  -2   3  105.36    3.64
   6  -2   3  121.31    3.28
   6  -2   3   98.23    2.91
  -6   2  -3  108.49    3.64
  -6   2  -3  105.58    3.79
  -6   2  -3  116.29    3.13
  -6   2  -3  117.30    3.13
   6  -2   2   22.72    2.11
   6  -2   2   21.12    1.89
   6  -2   2   23.52    1.60
  -6   2  -2   21.63    2.11
  -6   2  -2   23.08    1.60
  -6   2  -2   19.37    1.46
   6  -2   1  134.63    3.57
   6  -2   1  136.02    3.06
   6  -2   1  123.93    2.91
  -6   2  -1  138.20    4.15
  -6   2  -1  140.53    3.93
  -6   2  -1  138.86    3.35
  -6   2  -1  124.88    3.13
   6  -2   0  614.05    6.92
   6  -2   0  635.67    5.75
   6  -2   0  576.91    5.46
  -6   2   0  612.74    8.23
  -6   2   0  616.89    7.57
   6  -2  -1  389.12    5.24
   6  -2  -1  383.22    6.63
   6  -2  -1  390.58    3.57
   6  -2  -1  390.65    3.57
  -6   2   1  369.83    6.55
  -6   2   1  388.61    5.83
   6  -2  -2  179.85    3.42
   6  -2  -2  180.58    4.73
  -6   2   2  177.89    4.73
  -6   2   2  183.64    3.93
   6  -2  -3  243.86    3.79
   6  -2  -3  228.35    5.46
  -6   2   3  229.66    5.32
  -6   2   3  225.80    4.08
   6  -2  -4   10.49    1.17
   6  -2  -4   11.50    1.38
   6  -2  -4    9.83    1.75
  -6   2   4    7.94    1.53
  -6   2   4   12.01    1.31
   6  -2  -5   15.80    1.24
   6  -2  -5   14.93    1.60
   6  -2  -5   16.02    2.18
  -6   2   5   16.16    2.04
  -6   2   5   13.69    1.24
   6  -2  -6   81.55    2.99
   6  -2  -6   85.19    4.00
  -6   2   6   76.24    3.42
  -6   2   6   78.93    1.97
   6  -2  -7   14.85    1.89
   6  -2  -7   14.93    2.40
  -6   2   7   12.16    1.89
   6  -2  -8  498.34    7.72
   6  -2  -8  546.55    9.90
  -6   2   8  518.88    8.23
   6  -2  -9  529.36    8.52
   6  -2  -9  568.32   10.41
  -6   2   9  550.41    8.52
   6  -2 -10   28.98    3.06
   6  -2 -10   33.93    3.79
  -6   2  10   29.05    2.84
   6  -2 -11   23.45    2.91
   6  -2 -11   23.37    3.50
   6  -2 -12   10.41    2.48
   6  -2 -12    9.10    2.91
   6  -2 -13   55.48    4.44
   6  -2 -13   48.57    5.02
  -6   2  13   45.22    4.37
   6  -2 -14   41.36    4.30
   6  -2 -14   49.59    5.24
  -6   2  14   48.57    4.73
   6  -2 -15   56.65    5.46
  -6   2  15   49.15    4.88
   6  -2 -16   23.66    4.51
  -6   2  16   21.26    4.08
  -6   2  17   39.68    6.33
   7  -2  15    5.97    2.69
  -7   2 -15    9.54    3.35
   7  -2  14    6.48    2.69
  -7   2 -14    7.35    2.99
   7  -2  13   -0.07    1.75
  -7   2 -13    0.80    2.26
   7  -2  12   32.55    3.50
   7  -2  12   30.58    4.00
  -7   2 -12   31.97    4.37
   7  -2  11   92.47    4.81
   7  -2  11   94.30    5.39
  -7   2 -11   96.26    5.61
   7  -2  10    1.09    1.60
   7  -2  10    2.84    1.89
  -7   2 -10    2.48    2.11
   7  -2   9  295.70    7.50
   7  -2   9  284.05    7.94
   7  -2   8 1052.03   13.40
   7  -2   8 1038.05   14.20
  -7   2  -8 1117.20   11.50
  -7   2  -8 1211.86    7.79
  -7   2  -8 1123.39    7.50
   7  -2   7  394.58    8.16
   7  -2   7  404.70    8.66
  -7   2  -7  414.75    7.21
  -7   2  -7  461.28    5.83
  -7   2  -7  432.96    5.68
   7  -2   6  163.76    5.32
   7  -2   6  165.07    5.46
  -7   2  -6  170.53    4.88
  -7   2  -6  174.17    5.75
  -7   2  -6  182.84    4.08
  -7   2  -6  180.36    4.08
   7  -2   5  331.31    7.21
   7  -2   5  334.88    7.21
  -7   2  -5  343.76    6.70
  -7   2  -5  341.79    7.57
  -7   2  -5  365.09    5.83
  -7   2  -5  358.39    5.75
   7  -2   4   24.25    2.48
   7  -2   4   26.72    2.55
  -7   2  -4   25.85    2.48
  -7   2  -4   24.61    2.77
  -7   2  -4   26.29    1.97
   7  -2   3  234.25    5.90
   7  -2   3  234.10    5.53
   7  -2   3  257.84    4.95
   7  -2   3  209.93    4.44
  -7   2  -3  238.32    5.75
  -7   2  -3  243.86    6.04
  -7   2  -3  242.76    4.88
  -7   2  -3  220.41    4.59
   7  -2   2  117.30    4.30
   7  -2   2  118.40    3.93
   7  -2   2  119.85    3.28
   7  -2   2  105.44    3.06
  -7   2  -2  119.05    4.30
  -7   2  -2  126.26    4.37
  -7   2  -2  115.70    3.42
  -7   2  -2  112.94    4.15
   7  -2   1   19.88    1.97
   7  -2   1   22.21    1.60
   7  -2   1   18.57    1.46
  -7   2  -1   21.33    2.40
  -7   2  -1   18.86    2.18
   7  -2   0   23.59    1.97
   7  -2   0   22.28    1.38
   7  -2   0   20.53    1.31
  -7   2   0   22.43    2.40
  -7   2   0   21.77    2.11
   7  -2  -1  161.07    3.79
   7  -2  -1  159.90    4.88
   7  -2  -1  164.34    2.26
  -7   2   1  157.50    4.88
  -7   2   1  159.39    4.30
   7  -2  -2    1.46    0.80
   7  -2  -2    1.38    1.24
  -7   2   2    0.73    1.24
  -7   2   2    2.62    1.17
   7  -2  -3   27.67    1.67
   7  -2  -3   21.77    2.48
  -7   2   3   23.37    2.55
  -7   2   3   25.41    2.04
   7  -2  -4  435.65    5.02
   7  -2  -4  428.88    5.32
   7  -2  -4  420.80    8.08
  -7   2   4  410.31    7.79
  -7   2   4  422.40    5.90
   7  -2  -5   17.18    1.67
   7  -2  -5   22.86    2.77
  -7   2   5   19.44    2.40
  -7   2   5   17.48    1.67
   7  -2  -6  251.79    4.81
   7  -2  -6  243.06    6.70
  -7   2   6  250.48    6.33
   7  -2  -7   50.82    2.69
   7  -2  -7   49.00    3.86
  -7   2   7   48.71    3.42
   7  -2  -8   87.30    3.57
   7  -2  -8   94.15    4.95
  -7   2   8   90.29    4.30
   7  -2  -9   87.81    4.73
   7  -2  -9   97.28    5.24
  -7   2   9   93.49    4.37
   7  -2 -10  220.12    7.57
  -7   2  10  211.89    6.12
   7  -2 -11   37.86    4.44
   7  -2 -12   72.74    5.46
   7  -2 -13  164.56    7.72
   7  -2 -14   46.09    5.53
  -7   2  14   37.28    4.59
   7  -2 -15   68.15    6.19
  -7   2  15   71.58    5.83
   7  -2 -16   50.82    5.90
  -7   2  16   38.08    5.02
   8  -2  14   27.67    4.22
  -8   2 -14   30.58    4.88
   8  -2  13   58.40    5.02
   8  -2  13   53.45    5.10
  -8   2 -13   55.99    5.46
   8  -2  12   11.21    2.77
   8  -2  12   11.65    2.99
  -8   2 -12   13.47    3.28
   8  -2  11  169.15    6.70
   8  -2  11  165.87    7.14
  -8   2 -11  175.56    7.50
   8  -2  10  255.94    7.79
   8  -2  10  246.84    8.23
   8  -2   9  107.26    5.32
   8  -2   9  103.62    5.53
   8  -2   8  463.76    9.76
   8  -2   8  467.03   10.12
  -8   2  -8  508.83    8.66
  -8   2  -8  518.73    6.33
  -8   2  -8  508.03    6.33
   8  -2   7   10.34    2.33
   8  -2   7    6.33    2.04
  -8   2  -7   10.12    2.04
  -8   2  -7   11.00    1.67
  -8   2  -7    9.68    1.60
   8  -2   6  208.61    6.48
   8  -2   6  199.59    6.33
  -8   2  -6  211.45    5.90
  -8   2  -6  211.24    6.70
  -8   2  -6  214.51    4.81
  -8   2  -6  238.32    5.10
   8  -2   5  317.84    7.72
   8  -2   5  323.59    7.57
  -8   2  -5  328.61    7.21
  -8   2  -5  330.14    8.01
  -8   2  -5  378.78    8.52
   8  -2   4  300.00    7.35
   8  -2   4  309.90    7.06
  -8   2  -4  325.05    7.21
  -8   2  -4  320.97    7.65
   8  -2   3   38.08    3.20
   8  -2   3   36.77    2.91
   8  -2   3   40.41    2.40
   8  -2   3   36.19    2.11
  -8   2  -3   38.66    3.20
  -8   2  -3   37.14    3.20
   8  -2   2  328.76    7.50
   8  -2   2  346.53    6.77
   8  -2   2  365.68    5.83
   8  -2   2  316.45    5.39
  -8   2  -2  349.44    7.57
  -8   2  -2  355.63    7.50
   8  -2   1   33.42    2.55
   8  -2   1   36.04    1.97
   8  -2   1   29.85    1.75
  -8   2  -1   31.67    3.06
  -8   2  -1   35.39    2.91
   8  -2   0  134.78    4.00
   8  -2   0  145.70    2.99
   8  -2   0  123.57    2.77
  -8   2   0  135.36    5.10
  -8   2   0  141.99    4.66
   8  -2  -1  724.65    8.23
   8  -2  -1  721.01   10.78
  -8   2   1  712.49   10.78
  -8   2   1  728.22    9.61
   8  -2  -2   56.58    2.48
   8  -2  -2   54.83    3.64
  -8   2   2   54.17    3.57
  -8   2   2   57.23    3.13
   8  -2  -3   16.38    1.60
   8  -2  -3   17.84    2.55
  -8   2   3   15.66    2.48
  -8   2   3   17.55    2.11
   8  -2  -4  246.33    6.92
  -8   2   4  236.21    6.63
  -8   2   4  254.05    5.24
   8  -2  -5  102.09    4.95
  -8   2   5  103.98    4.73
  -8   2   5  103.25    3.42
   8  -2  -6  211.67    6.84
  -8   2   6  204.39    6.33
   8  -2  -7  121.60    5.68
  -8   2   7  111.70    5.02
   8  -2  -8   20.68    3.28
  -8   2   8   19.81    2.77
   8  -2  -9  126.99    6.19
  -8   2   9  109.88    5.17
   8  -2 -10  305.60    9.10
  -8   2  10  316.23    7.94
   8  -2 -11   44.20    5.02
   8  -2 -12   53.59    5.32
   8  -2 -13  209.49    8.74
   8  -2 -14   61.09    6.19
   8  -2 -15   13.91    3.93
  -8   2  15   14.85    3.71
   9  -2  13   29.93    4.00
   9  -2  13   29.64    4.51
  -9   2 -13   32.62    4.95
   9  -2  12   27.89    3.93
   9  -2  12   27.52    4.37
  -9   2 -12   26.29    4.30
   9  -2  11   59.78    4.95
   9  -2  11   57.16    5.17
  -9   2 -11   55.19    5.32
   9  -2  10  337.28    9.39
   9  -2  10  339.83    9.90
   9  -2   9   30.73    3.86
   9  -2   9   25.78    3.50
  -9   2  -9   31.02    1.97
  -9   2  -9   27.96    1.97
   9  -2   8  282.01    8.30
   9  -2   8  288.57    8.52
  -9   2  -8  306.48    8.23
  -9   2  -8  316.89    5.68
  -9   2  -8  303.71    5.61
   9  -2   7   70.92    4.66
   9  -2   7   70.41    4.59
  -9   2  -7   76.24    4.30
  -9   2  -7   73.98    4.95
  -9   2  -7   81.63    3.35
  -9   2  -7   76.60    3.35
   9  -2   6   26.36    3.35
   9  -2   6   26.80    3.35
  -9   2  -6   25.85    3.13
  -9   2  -6   27.01    3.57
   9  -2   5   98.37    5.10
   9  -2   5  101.21    4.88
  -9   2  -5  100.78    4.73
  -9   2  -5  102.45    5.24
   9  -2   4   86.29    4.81
   9  -2   4   88.76    4.44
  -9   2  -4   93.79    4.73
  -9   2  -4   93.86    4.95
   9  -2   3  227.33    6.99
   9  -2   3  231.84    6.33
   9  -2   3  252.67    8.16
   9  -2   3  207.38    4.88
  -9   2  -3  246.99    7.06
  -9   2  -3  241.38    7.06
   9  -2   2    5.61    1.75
   9  -2   2    6.04    1.31
   9  -2   2    4.73    1.17
  -9   2  -2    4.81    2.04
  -9   2  -2    4.30    1.89
   9  -2   1  161.43    4.88
   9  -2   1  162.23    3.79
   9  -2   1  147.96    3.57
  -9   2  -1  158.37    5.90
  -9   2  -1  161.58    5.61
   9  -2   0   42.67    2.84
   9  -2   0   43.40    1.82
   9  -2   0   37.14    1.75
  -9   2   0   43.40    3.79
  -9   2   0   39.47    3.35
   9  -2  -1  310.19    5.90
   9  -2  -1  301.16    7.79
  -9   2   1  303.06    7.86
  -9   2   1  323.81    7.21
   9  -2  -2  159.46    6.04
  -9   2   2  154.44    5.90
  -9   2   2  159.54    5.10
   9  -2  -3  103.18    5.24
  -9   2   3  108.42    5.24
  -9   2   3  107.04    4.22
   9  -2  -4  520.12   10.49
  -9   2   4  487.20    9.98
  -9   2   4  508.83    8.08
   9  -2  -5   40.34    4.15
  -9   2   5   39.90    3.86
   9  -2  -6   50.97    4.51
  -9   2   6   48.06    4.15
   9  -2  -7   43.54    4.44
  -9   2   7   44.49    4.08
   9  -2  -8   28.69    3.86
  -9   2   8   28.25    3.57
   9  -2  -9    1.17    2.48
  -9   2   9    0.73    2.04
   9  -2 -10  112.50    6.48
  -9   2  10  109.44    5.68
   9  -2 -11  107.26    6.63
   9  -2 -12  170.53    8.23
   9  -2 -13   40.12    5.10
   9  -2 -14  143.88    8.16
  10  -2  13   92.91    6.48
  10  -2  12   49.59    5.24
  10  -2  12   46.24    5.39
 -10   2 -12   43.98    5.68
  10  -2  11   61.24    5.46
  10  -2  11   54.83    5.32
  10  -2  10  299.27    9.54
  10  -2  10  291.48    9.68
  10  -2   9    0.87    2.18
  10  -2   9    0.73    2.18
 -10   2  -9    0.36    1.02
 -10   2  -9    1.17    1.09
  10  -2   8   24.03    3.71
  10  -2   8   24.98    3.57
 -10   2  -8   25.92    2.33
 -10   2  -8   25.34    2.40
  10  -2   7   28.69    3.79
  10  -2   7   32.04    3.93
 -10   2  -7   33.28    3.64
 -10   2  -7   32.69    4.37
  10  -2   6   23.16    3.50
  10  -2   6   22.65    3.20
 -10   2  -6   25.27    3.28
 -10   2  -6   26.80    3.71
  10  -2   5    5.46    2.33
  10  -2   5    3.86    2.04
 -10   2  -5    3.35    2.04
 -10   2  -5    6.63    2.48
  10  -2   4   74.85    4.95
  10  -2   4   76.67    4.44
 -10   2  -4   80.75    4.88
 -10   2  -4   79.08    5.10
  10  -2   3   63.79    4.00
  10  -2   3   66.41    4.59
  10  -2   3   55.56    2.84
 -10   2  -3   58.25    4.44
 -10   2  -3   60.07    4.51
  10  -2   2    6.70    1.89
  10  -2   2   10.34    1.60
  10  -2   2    7.14    1.31
 -10   2  -2    7.35    2.40
 -10   2  -2   10.34    2.55
  10  -2   1  234.75    6.12
  10  -2   1  249.03    4.44
  10  -2   1  220.19    4.15
 -10   2  -1  242.84    7.72
 -10   2  -1  242.62    7.21
 -10   2   0  159.83    6.48
 -10   2   0  160.05    5.97
  10  -2  -1   96.77    5.46
 -10   2   1   98.74    5.46
 -10   2   1   96.70    4.81
  10  -2  -2  411.11    9.90
 -10   2   2  408.49    9.83
 -10   2   2  404.12    8.37
  10  -2  -3  186.48    7.14
 -10   2   3  173.88    6.84
 -10   2   3  177.67    5.68
  10  -2  -4  191.79    7.35
 -10   2   4  189.25    7.14
  10  -2  -5   21.41    3.42
 -10   2   5   26.07    3.64
  10  -2  -6    8.74    2.77
 -10   2   6    8.88    2.62
  10  -2  -7  165.65    7.28
 -10   2   7  155.02    6.70
  10  -2  -8   72.52    5.75
 -10   2   8   61.75    4.95
  10  -2  -9   11.50    3.35
 -10   2   9    9.90    2.84
  10  -2 -10   63.42    5.90
 -10   2  10   55.78    4.95
  10  -2 -11  143.81    7.72
  10  -2 -12   94.95    6.92
  10  -2 -13   18.06    4.59
  11  -2  12   33.20    4.88
  11  -2  11   85.48    6.48
  11  -2  11   78.35    6.33
  11  -2  10  121.82    7.14
  11  -2  10  119.63    7.06
  11  -2   9   32.55    4.51
  11  -2   9   30.58    4.30
 -11   2  -9   35.53    2.62
 -11   2  -9   33.86    2.62
  11  -2   8   40.41    4.88
  11  -2   8   40.63    4.73
  11  -2   7   18.28    3.64
  11  -2   7   17.18    3.28
 -11   2  -7   21.48    3.42
  11  -2   6   40.78    4.88
  11  -2   6   35.17    4.22
 -11   2  -6   39.32    4.30
 -11   2  -6   46.09    5.02
  11  -2   5   11.00    3.13
  11  -2   5    9.98    2.55
 -11   2  -5   12.89    2.99
 -11   2  -5   11.65    3.20
  11  -2   4   16.82    2.84
 -11   2  -4   12.74    3.06
 -11   2  -4   15.22    3.28
  11  -2   3   37.57    3.64
  11  -2   3   40.70    2.77
  11  -2   3   35.32    2.48
 -11   2  -3   41.21    4.44
 -11   2  -3   39.32    4.44
  11  -2   2    4.22    1.24
  11  -2   2    3.50    1.17
 -11   2  -2    2.48    2.33
 -11   2  -2    3.13    2.40
  11  -2   1   35.10    1.89
  11  -2   1   31.38    1.75
 -11   2  -1   35.39    4.37
 -11   2  -1   34.59    4.00
  11  -2   0   67.43    5.32
 -11   2   0   80.46    5.61
 -11   2   0   69.10    4.81
  11  -2  -1   93.86    5.75
 -11   2   1  102.23    6.04
 -11   2   1   98.66    5.24
  11  -2  -2   96.48    5.90
 -11   2   2   92.11    5.83
 -11   2   2   91.46    5.02
  11  -2  -3   10.70    3.06
 -11   2   3    9.03    2.84
  11  -2  -4  227.98    8.37
 -11   2   4  227.84    8.23
  11  -2  -5   29.34    4.15
 -11   2   5   30.73    4.22
  11  -2  -6    2.11    2.69
 -11   2   6    5.61    2.69
  11  -2  -7   56.07    5.46
 -11   2   7   51.41    5.02
  11  -2  -8    5.90    3.06
 -11   2   8    7.50    2.77
  11  -2  -9   15.36    4.00
 -11   2   9   14.49    3.42
  11  -2 -10  181.60    8.66
 -11   2  10  166.45    7.65
  11  -2 -11   22.06    4.37
  12  -2  10    6.55    5.32
  12  -2   9   34.00    5.02
  12  -2   9   34.95    4.95
  12  -2   8   14.13    3.71
  12  -2   8   13.98    3.35
  12  -2   7    1.67    2.77
  12  -2   7    5.32    2.69
 -12   2  -7    4.66    2.77
  12  -2   6    3.86    2.33
 -12   2  -6    4.95    2.69
 -12   2  -6    3.28    2.84
  12  -2   5   24.25    3.64
 -12   2  -5   27.31    4.00
 -12   2  -5   23.88    4.15
 -12   2  -4   28.32    4.15
 -12   2  -4   28.54    4.37
  12  -2   3    9.76    1.67
  12  -2   3   10.41    1.67
 -12   2  -3    8.74    3.06
 -12   2  -3   10.56    3.28
  12  -2   2    6.84    1.31
  12  -2   2    6.33    1.24
 -12   2  -2    9.32    3.06
 -12   2  -2    7.21    2.91
  12  -2   1   29.64    4.30
 -12   2  -1   29.78    4.30
 -12   2  -1   33.71    4.22
  12  -2   0   12.31    3.42
 -12   2   0   14.27    3.42
 -12   2   0   13.76    3.20
  12  -2  -1  171.19    7.79
 -12   2   1  168.27    7.86
 -12   2   1  175.85    7.06
  12  -2  -2   28.54    4.30
 -12   2   2   30.80    4.30
 -12   2   2   33.42    6.12
  12  -2  -3   26.29    4.30
 -12   2   3   23.52    3.86
  12  -2  -4   52.21    5.68
 -12   2   4   63.86    5.68
  12  -2  -5   25.19    4.30
 -12   2   5   28.76    4.44
  12  -2  -6    3.06    2.99
 -12   2   6    6.63    2.99
  12  -2  -7   -0.73    2.62
 -12   2   7    1.17    2.55
  12  -2  -8   41.65    5.61
 -12   2   8   43.76    5.39
  12  -2  -9   31.31    5.10
 -12   2   9   31.24    4.59
 -12   2  10   10.12    3.35
  13  -2   8   51.70    5.46
 -13   2  -6   63.64    5.97
 -13   2  -5    4.73    2.91
 -13   2  -5    9.32    3.57
  13  -2   4   14.93    2.18
  13  -2   4   12.67    1.97
 -13   2  -4   18.42    3.86
 -13   2  -4   16.46    4.00
  13  -2   3   36.48    2.48
  13  -2   3   31.46    2.33
 -13   2  -3   33.79    4.88
 -13   2  -3   38.37    5.02
 -13   2  -2    7.86    3.20
 -13   2  -2    4.81    3.06
  13  -2   1    7.14    3.35
 -13   2  -1    7.65    3.35
 -13   2  -1    9.32    3.28
  13  -2   0   71.29    6.26
 -13   2   0   82.79    6.70
 -13   2   0   81.41    6.04
  13  -2  -1   73.98    6.55
 -13   2   1   77.62    6.55
  13  -2  -2    9.47    3.42
 -13   2   2    9.76    3.50
  13  -2  -3    6.33    3.42
 -13   2   3    4.88    3.13
  13  -2  -4   -1.17    2.77
 -13   2   4    1.24    2.91
  13  -2  -5   10.41    3.71
 -13   2   5    7.21    3.28
  13  -2  -6   12.09    3.93
 -13   2   6   11.72    3.57
 -13   2   7    2.33    3.28
  14  -2   5    0.29    1.82
 -14   2  -3   21.26    5.10
 -14   2  -2   49.30    5.68
 -14   2  -1   52.94    5.68
  11   3  -6   16.46    4.44
  11   3  -5   95.46    7.14
 -11  -3   4   -1.75    2.77
  11   3  -4    1.82    3.06
  11   3  -4    2.91    2.91
 -11  -3   3   42.89    5.39
 -11  -3   3   40.34    5.24
  11   3  -3   38.37    5.17
  11   3  -3   45.29    5.61
 -11  -3   2   -0.22    2.69
 -11  -3   2    3.86    2.99
  11   3  -2    2.18    2.91
  11   3  -2    0.36    2.77
 -11  -3   1    3.13    2.77
 -11  -3   1   -0.73    2.55
  11   3  -1    1.38    2.77
  11   3  -1    3.42    3.06
 -11  -3   0    9.47    3.42
 -11  -3  -1   12.23    3.71
  11   3   1    9.76    3.35
 -11  -3  -2   23.81    4.37
  11   3   2   20.83    4.15
 -11  -3  -3    9.68    3.50
  11   3   3    6.19    3.20
  11   3   5   36.33    2.99
  11   3   5   29.64    2.40
 -10  -3   9    1.17    3.06
  10   3  -8   31.38    4.81
 -10  -3   7   -0.22    2.69
  10   3  -7    5.32    3.35
  10   3  -7   -0.44    2.55
 -10  -3   6   -0.80    2.55
  10   3  -6    3.35    3.13
  10   3  -6    1.02    2.84
 -10  -3   5   77.04    6.33
  10   3  -5   90.51    6.70
  10   3  -5   81.55    6.12
 -10  -3   4   29.85    4.44
 -10  -3   4   27.01    4.00
  10   3  -4   27.74    4.51
  10   3  -4   25.99    4.22
 -10  -3   3   45.15    5.17
 -10  -3   3   34.66    4.44
  10   3  -3   40.05    4.95
  10   3  -3   31.02    4.30
 -10  -3   2   16.31    3.57
 -10  -3   2   14.49    3.42
  10   3  -2   14.27    3.35
  10   3  -2   18.57    3.79
 -10  -3   1   56.87    5.17
 -10  -3   1   56.94    5.46
  10   3  -1   59.42    5.17
 -10  -3   0    4.37    2.62
 -10  -3   0    6.99    2.84
  10   3   0    8.45    2.91
  10   3   0    8.74    2.84
 -10  -3  -1    3.20    2.69
  10   3   1    4.37    2.62
 -10  -3  -2  113.81    6.77
  10   3   2  113.01    6.70
 -10  -3  -3    1.24    2.48
  10   3   3   -0.15    2.40
  10   3   3    1.17    1.09
 -10  -3  -4    9.61    3.35
  10   3   4    8.37    3.20
  10   3   4   11.43    1.97
  10   3   4    7.57    1.53
 -10  -3  -5    8.23    3.20
  10   3   5    8.37    3.28
 -10  -3  -6   25.12    4.44
  10   3   6   19.73    4.00
 -10  -3  -7   24.68    4.81
  10   3   7   18.64    4.08
  -9  -3  10   12.38    3.42
  -9  -3   9   47.84    5.68
   9   3  -9   39.39    5.17
  -9  -3   8    5.10    2.99
   9   3  -8    3.93    2.99
   9   3  -8    6.99    2.84
  -9  -3   7    2.91    2.91
   9   3  -7    8.01    3.20
   9   3  -7    6.99    2.84
  -9  -3   6   15.00    3.64
   9   3  -6   12.60    3.42
   9   3  -6   11.72    3.20
  -9  -3   5   28.83    4.22
  -9  -3   5   27.67    3.64
   9   3  -5   29.20    4.22
   9   3  -5   25.63    3.93
  -9  -3   4    8.37    3.06
  -9  -3   4   12.31    2.84
   9   3  -4   11.00    3.13
   9   3  -4    7.28    2.91
  -9  -3   3   37.72    4.66
  -9  -3   3   37.94    4.22
   9   3  -3   42.45    4.73
   9   3  -3   37.21    4.51
  -9  -3   2  124.00    6.48
  -9  -3   2  119.20    6.12
   9   3  -2  124.51    6.41
   9   3  -2  118.32    6.33
  -9  -3   1  126.62    6.26
  -9  -3   1  123.13    6.48
   9   3  -1  117.01    6.19
   9   3  -1  115.92    5.97
  -9  -3   0   90.58    5.39
  -9  -3   0   81.55    5.61
   9   3   0   82.06    5.39
   9   3   0   85.05    5.24
  -9  -3  -1    7.79    2.48
  -9  -3  -1    5.90    2.62
   9   3   1    9.54    2.84
   9   3   1   10.27    2.55
  -9  -3  -2   34.81    4.44
   9   3   2   25.41    3.93
  -9  -3  -3   39.03    4.59
   9   3   3   45.29    4.66
   9   3   3   41.72    2.62
   9   3   3   33.06    2.18
  -9  -3  -4   33.49    4.37
   9   3   4   29.49    4.15
   9   3   4   29.85    2.40
  -9  -3  -5    4.66    2.62
   9   3   5    4.30    2.55
  -9  -3  -6   66.04    5.61
   9   3   6   62.77    5.53
  -9  -3  -7    1.53    2.55
   9   3   7    1.53    2.40
  -9  -3  -8   14.13    3.57
   9   3   8   12.45    3.35
  -9  -3  -9    8.08    3.20
   9   3   9    3.28    2.62
  -9  -3 -10    3.71    4.66
  -9  -3 -10    1.97    1.24
  -9  -3 -10    2.77    1.38
  -8  -3  11   10.56    3.50
   8   3 -11   10.05    3.64
  -8  -3  10   33.79    4.81
   8   3 -10   31.02    4.81
  -8  -3   9    7.21    3.06
   8   3  -9   12.01    3.42
   8   3  -9    4.44    2.77
  -8  -3   8    6.63    2.84
   8   3  -8    3.79    2.84
   8   3  -8    8.59    2.77
   8   3  -7   72.81    5.75
   8   3  -7   66.77    5.02
  -8  -3   6   15.36    2.91
   8   3  -6   17.48    3.50
   8   3  -6   14.13    3.13
  -8  -3   5   44.27    4.00
   8   3  -5   39.03    4.44
   8   3  -5   44.27    4.37
  -8  -3   4   46.89    4.22
   8   3  -4   44.05    4.44
   8   3  -4   50.02    4.44
  -8  -3   3   32.11    3.71
   8   3  -3   31.31    3.86
   8   3  -3   31.89    3.86
  -8  -3   2   79.73    5.10
   8   3  -2   74.78    4.81
   8   3  -2   81.19    5.02
  -8  -3   1  222.09    7.50
   8   3  -1  210.80    7.14
   8   3  -1  226.02    7.35
  -8  -3   0    9.25    2.55
   8   3   0    4.73    2.26
   8   3   0    8.01    2.33
  -8  -3  -1  140.17    6.33
   8   3   1  141.70    6.26
   8   3   1  145.12    5.75
  -8  -3  -2   63.71    4.81
   8   3   2   65.68    4.81
   8   3   2   63.93    4.08
   8   3   2   68.01    2.69
   8   3   2   51.77    2.33
  -8  -3  -3   37.65    4.15
   8   3   3   38.30    4.08
   8   3   3   39.39    2.55
   8   3   3   30.07    2.11
  -8  -3  -4    8.30    2.69
   8   3   4    6.19    2.33
  -8  -3  -5   12.45    2.91
   8   3   5    8.23    2.55
  -8  -3  -6   51.55    4.88
   8   3   6   51.12    4.73
  -8  -3  -7    4.66    2.55
   8   3   7    6.26    2.48
  -8  -3  -8   18.64    3.57
   8   3   8   22.06    3.79
  -8  -3  -9    3.42    2.55
  -8  -3  -9    3.42    1.38
  -8  -3  -9    2.69    1.38
   8   3   9    4.00    2.48
  -8  -3 -10   10.56    3.13
  -8  -3 -10   12.38    1.67
  -8  -3 -10   11.65    1.60
   8   3  10   10.70    3.13
  -8  -3 -11   12.16    3.42
   8   3  11   10.27    3.28
  -8  -3 -12   12.23    3.64
  -7  -3  13   53.37    5.90
   7   3 -13   50.39    5.90
  -7  -3  12   36.70    4.81
   7   3 -12   57.89    6.12
  -7  -3  11   68.08    5.90
   7   3 -11   73.91    6.19
  -7  -3  10   31.24    4.30
   7   3 -10   29.34    4.30
   7   3 -10   33.57    4.95
   7   3  -9    5.32    2.69
   7   3  -9   -1.82    2.04
   7   3  -8   21.12    3.57
   7   3  -8   17.26    2.99
   7   3  -7   11.50    2.99
   7   3  -7   13.98    2.84
  -7  -3   6   42.89    3.57
   7   3  -6   46.82    4.51
   7   3  -6   41.80    4.00
  -7  -3   5   80.39    4.44
   7   3  -5   77.40    5.10
   7   3  -5   74.64    4.66
  -7  -3   4  143.81    5.53
   7   3  -4  137.55    6.04
   7   3  -4  136.45    5.68
  -7  -3   3   12.82    2.48
   7   3  -3   12.31    2.40
   7   3  -3   13.62    2.77
   7   3  -3   15.80    2.77
  -7  -3   2   52.14    3.93
   7   3  -2   50.53    3.79
   7   3  -2   47.33    3.86
  -7  -3   1  315.58    8.08
   7   3  -1  313.76    7.79
   7   3  -1  322.79    8.01
  -7  -3   0  153.42    5.97
   7   3   0  148.76    5.68
   7   3   0  151.45    5.53
  -7  -3  -1   35.75    3.71
   7   3   1   35.02    3.57
   7   3   1   37.21    3.35
   7   3   1   35.97    1.97
   7   3   1   29.93    1.67
  -7  -3  -2   69.68    4.51
   7   3   2   65.46    4.22
   7   3   2   67.57    3.79
   7   3   2   74.13    2.91
   7   3   2   69.54    2.69
  -7  -3  -3   39.61    3.86
   7   3   3   43.47    3.86
   7   3   3   44.78    3.20
   7   3   3   47.84    2.69
   7   3   3   36.92    2.33
  -7  -3  -4  145.27    6.12
  -7  -3  -5  187.35    7.06
   7   3   5  175.85    6.77
  -7  -3  -6    3.57    2.11
   7   3   6    1.17    1.82
  -7  -3  -7   16.24    3.06
   7   3   7   20.75    3.28
  -7  -3  -8    1.67    2.04
   7   3   8    1.75    2.11
  -7  -3  -9   18.86    3.57
  -7  -3  -9   19.15    2.04
  -7  -3  -9   18.20    2.04
   7   3   9   18.28    3.42
  -7  -3 -10   29.42    4.22
  -7  -3 -10   29.64    1.89
  -7  -3 -10   30.07    1.89
   7   3  10   32.91    4.37
  -7  -3 -11   10.41    2.99
   7   3  11   15.07    3.35
  -7  -3 -12   37.57    4.66
   7   3  12   41.36    5.10
  -7  -3 -13    0.00    2.48
   7   3  13   -0.15    2.40
  -7  -3 -14   16.53    4.08
  -6  -3  15   46.24    5.68
   6   3 -15   47.62    5.83
  -6  -3  14   10.78    3.28
   6   3 -14    9.90    3.57
  -6  -3  13   20.61    3.71
   6   3 -13   17.40    3.79
  -6  -3  12   24.54    3.93
   6   3 -12   30.36    4.37
   6   3 -11   12.23    3.28
   6   3 -10   18.71    3.57
   6   3 -10   16.75    2.99
   6   3  -9    9.68    2.77
   6   3  -9    9.76    2.40
   6   3  -8   50.17    4.37
   6   3  -8   51.48    4.00
  -6  -3   7   67.28    3.86
   6   3  -7   58.98    4.51
   6   3  -7   61.31    4.15
  -6  -3   6   21.99    2.69
   6   3  -6   23.16    3.20
   6   3  -6   22.14    2.84
  -6  -3   5   44.64    3.42
   6   3  -5   42.16    3.64
   6   3  -5   42.38    3.50
  -6  -3   4   80.24    4.15
   6   3  -4   68.30    4.22
   6   3  -4   72.38    4.08
  -6  -3   3   19.08    2.55
   6   3  -3   25.92    2.69
   6   3  -3   25.99    3.06
  -6  -3   2   81.55    4.15
   6   3  -2   77.69    3.86
   6   3  -2   74.85    4.08
  -6  -3   1   25.49    2.91
   6   3  -1   24.47    2.84
   6   3  -1   24.68    2.84
  -6  -3   0  609.68   10.34
   6   3   0  620.31   10.05
   6   3   0  594.46    9.61
  -6  -3  -1   46.82    3.50
   6   3   1   52.65    3.57
   6   3   1   47.18    3.13
   6   3   1   53.74    2.18
   6   3   1   44.05    1.89
  -6  -3  -2    5.10    1.82
   6   3   2    4.44    1.67
   6   3   2    6.70    1.67
   6   3   2    4.30    1.17
   6   3   2    4.30    1.02
  -6  -3  -3  138.57    5.46
   6   3   3  127.57    5.17
   6   3   3  137.40    4.37
   6   3   3  133.18    3.93
   6   3   3  117.81    3.64
  -6  -3  -4   42.16    3.64
   6   3   4   42.38    3.57
   6   3   4   46.89    2.77
  -6  -3  -5  139.66    5.68
   6   3   5  144.32    5.83
  -6  -3  -6  302.04    8.23
   6   3   6  289.44    8.08
  -6  -3  -7  195.65    6.99
  -6  -3  -7  202.13    6.84
  -6  -3  -7  221.21    6.41
   6   3   7  187.35    6.84
  -6  -3  -8   37.28    3.93
  -6  -3  -8   35.82    3.13
  -6  -3  -8   39.47    2.48
  -6  -3  -8   39.03    2.48
   6   3   8   36.41    3.93
  -6  -3  -9   28.18    3.79
  -6  -3  -9   29.49    3.28
  -6  -3  -9   30.66    2.11
  -6  -3  -9   29.64    2.04
   6   3   9   28.11    3.79
  -6  -3 -10   29.93    3.86
  -6  -3 -10   26.36    3.28
   6   3  10   23.88    3.57
  -6  -3 -11   17.11    3.28
  -6  -3 -11   14.27    2.84
   6   3  11   18.79    3.50
  -6  -3 -12   55.05    4.81
  -6  -3 -12   55.41    4.66
   6   3  12   56.72    5.10
   6   3  12   49.81    4.30
  -6  -3 -13   13.91    3.20
  -6  -3 -13   17.99    3.50
   6   3  13   17.11    3.50
   6   3  13   14.71    3.13
  -6  -3 -14   14.20    3.28
  -6  -3 -14   13.62    3.42
   6   3  14   13.54    3.50
   6   3  14   12.52    3.20
  -6  -3 -15   64.88    5.83
  -6  -3 -15   55.41    6.48
   6   3  15   62.40    5.53
  -5  -3  15   41.43    5.10
   5   3 -15   36.70    4.81
  -5  -3  14  114.83    6.63
   5   3 -14  118.69    6.84
  -5  -3  13   10.56    2.99
   5   3 -13   14.93    3.35
   5   3 -12    0.44    2.33
   5   3 -11   51.84    4.81
   5   3 -10  139.22    6.41
   5   3 -10  138.13    5.61
   5   3  -9   52.43    4.51
   5   3  -9   51.70    3.86
  -5  -3   8   73.69    3.71
   5   3  -8   76.09    4.81
   5   3  -8   75.58    4.15
  -5  -3   7   14.42    2.18
   5   3  -7   15.15    2.69
   5   3  -7   15.80    2.40
  -5  -3   6   51.19    3.28
   5   3  -6   45.00    3.57
   5   3  -6   52.79    3.42
  -5  -3   5   41.58    2.99
   5   3  -5   38.45    3.20
   5   3  -5   37.14    2.99
  -5  -3   4  130.99    4.59
   5   3  -4  120.87    4.88
   5   3  -4  128.08    4.51
  -5  -3   3  131.65    4.59
   5   3  -3  129.39    4.15
   5   3  -3  129.03    4.81
  -5  -3   2   98.74    4.08
   5   3  -2   98.81    3.86
   5   3  -2   96.92    4.15
  -5  -3   1   12.38    2.11
   5   3  -1   12.38    1.97
   5   3  -1   11.87    2.04
  -5  -3   0  121.75    4.59
   5   3   0  116.72    4.30
   5   3   0  115.56    4.15
   5   3   0  123.35    2.40
   5   3   0  104.56    2.18
  -5  -3  -1  349.58    7.43
   5   3   1  340.12    7.06
   5   3   1  351.91    6.70
   5   3   1  352.93    4.88
   5   3   1  296.94    4.51
  -5  -3  -2   32.62    2.91
  -5  -3  -2   33.93    1.60
   5   3   2   32.84    2.77
   5   3   2   35.24    2.48
   5   3   2   35.75    1.97
   5   3   2   33.49    1.89
  -5  -3  -3  253.40    6.55
  -5  -3  -3  252.74    4.30
   5   3   3  248.66    6.41
   5   3   3  253.69    5.32
   5   3   3  270.00    5.17
   5   3   3  227.69    4.73
  -5  -3  -4   59.85    3.57
  -5  -3  -4   56.87    2.55
   5   3   4   61.46    3.71
   5   3   4   59.05    2.69
  -5  -3  -5   52.72    3.64
  -5  -3  -5   52.14    2.69
   5   3   5   53.15    3.57
   5   3   5   55.12    2.55
  -5  -3  -6  317.76    7.86
  -5  -3  -6  329.41    6.48
  -5  -3  -6  336.77    6.04
  -5  -3  -6  318.42    5.83
   5   3   6  305.09    7.72
  -5  -3  -7  311.79    7.94
  -5  -3  -7  317.98    6.84
  -5  -3  -7  350.46    5.97
  -5  -3  -7  333.35    5.83
   5   3   7  308.73    8.01
  -5  -3  -8  102.45    5.17
  -5  -3  -8  102.81    4.51
  -5  -3  -8  110.82    3.28
  -5  -3  -8  106.67    3.28
   5   3   8   88.32    4.88
  -5  -3  -9  159.90    6.26
  -5  -3  -9  152.40    5.61
  -5  -3  -9  165.44    3.35
  -5  -3  -9  153.20    3.20
   5   3   9  158.95    6.41
  -5  -3 -10   55.41    4.37
  -5  -3 -10   57.01    4.08
   5   3  10   61.67    4.59
  -5  -3 -11    9.76    2.48
  -5  -3 -11   13.33    2.69
   5   3  11   13.11    2.91
  -5  -3 -12   55.41    4.59
  -5  -3 -12   57.38    4.51
   5   3  12   61.46    5.02
  -5  -3 -13   20.68    3.50
  -5  -3 -13   20.83    3.50
   5   3  13   18.20    3.50
  -5  -3 -14    0.22    2.11
  -5  -3 -14    0.07    2.18
   5   3  14    1.17    2.26
  -5  -3 -15    8.52    3.13
  -5  -3 -15    7.72    3.06
   5   3  15    8.59    2.99
   5   3  15   10.56    3.13
  -5  -3 -16   43.40    6.48
   5   3  16   42.01    5.61
  -4  -3  15   16.60    4.37
  -4  -3  15   17.69    3.50
  -4  -3  14   11.36    2.84
  -4  -3  14    8.74    2.69
   4   3 -14    7.65    2.91
  -4  -3  13   32.40    3.93
   4   3 -13   32.77    4.15
  -4  -3  12   66.70    4.66
   4   3 -12   68.01    4.95
   4   3 -11    3.20    2.26
   4   3 -11    3.79    1.97
   4   3 -10  222.38    7.35
   4   3 -10  240.00    6.55
  -4  -3   9   29.71    2.77
   4   3  -9   29.56    3.64
   4   3  -9   30.80    3.13
  -4  -3   8  187.64    5.10
   4   3  -8  152.77    5.75
   4   3  -8  177.16    5.32
  -4  -3   7  203.74    5.24
   4   3  -7  181.53    6.04
   4   3  -7  186.77    5.17
  -4  -3   6   14.05    1.97
   4   3  -6   10.56    2.11
   4   3  -6   12.52    1.89
  -4  -3   5   22.57    2.18
   4   3  -5   20.02    2.48
   4   3  -5   19.30    2.26
  -4  -3   4    9.25    1.67
   4   3  -4    8.74    1.38
   4   3  -4    8.45    1.82
   4   3  -4   10.56    1.75
  -4  -3   3  329.20    6.41
   4   3  -3  302.25    5.46
   4   3  -3  296.21    6.48
  -4  -3   2  183.35    4.88
   4   3  -2  178.32    4.37
   4   3  -2  164.71    4.81
  -4  -3   1   35.46    2.55
   4   3  -1   35.82    2.40
   4   3  -1   32.33    2.40
  -4  -3   0 1573.75   13.98
   4   3   0 1512.80   12.96
   4   3   0 1532.02   13.03
   4   3   0 1602.36    8.45
   4   3   0 1343.14    7.72
  -4  -3  -1 1118.51   12.01
  -4  -3  -1 1082.61    6.70
   4   3   1 1106.86   11.50
   4   3   1 1095.72   10.70
   4   3   1 1194.09    8.66
   4   3   1 1008.27    7.94
  -4  -3  -2   34.08    2.62
  -4  -3  -2   33.42    1.60
  -4  -3  -2   33.20    1.89
   4   3   2   33.49    2.48
   4   3   2   34.59    2.18
   4   3   2   35.68    1.89
   4   3   2   32.99    1.75
  -4  -3  -3  194.71    5.39
  -4  -3  -3  188.15    3.71
  -4  -3  -3  186.99    4.22
   4   3   3  192.01    5.24
   4   3   3  183.06    4.15
   4   3   3  199.00    4.22
   4   3   3  171.77    3.93
  -4  -3  -4   28.03    2.55
  -4  -3  -4   24.54    1.82
  -4  -3  -4   27.60    1.89
   4   3   4   25.34    2.48
   4   3   4   23.30    1.75
   4   3   4   23.88    1.82
   4   3   4   28.47    1.89
  -4  -3  -5  243.42    6.19
  -4  -3  -5  248.59    5.17
  -4  -3  -5  268.54    5.02
  -4  -3  -5  263.30    4.95
   4   3   5  247.79    6.33
   4   3   5  249.10    4.30
  -4  -3  -6  741.04   10.85
  -4  -3  -6  721.81    9.25
  -4  -3  -6  792.81    8.30
  -4  -3  -6  741.55    8.08
   4   3   6  723.49   10.92
  -4  -3  -7   65.61    3.79
  -4  -3  -7   69.39    3.50
  -4  -3  -7   70.70    2.62
  -4  -3  -7   67.14    2.55
   4   3   7   64.30    3.86
  -4  -3  -8   64.30    3.93
  -4  -3  -8   58.11    3.50
  -4  -3  -8   62.91    2.26
  -4  -3  -8   64.81    2.26
   4   3   8   55.92    3.86
  -4  -3  -9   34.59    3.35
  -4  -3  -9   30.58    3.06
   4   3   9   30.22    3.35
  -4  -3 -10   -0.15    1.53
  -4  -3 -10    0.44    1.46
   4   3  10    1.17    1.67
  -4  -3 -11   54.03    4.08
  -4  -3 -11   54.98    4.15
   4   3  11   63.93    4.59
  -4  -3 -12   -0.15    1.60
  -4  -3 -12    2.18    1.97
   4   3  12    0.73    1.82
  -4  -3 -13   44.13    4.15
  -4  -3 -13   39.03    4.22
   4   3  13   39.32    4.37
  -4  -3 -14   19.73    3.71
  -4  -3 -14   20.46    3.57
   4   3  14   22.94    3.71
  -4  -3 -15    4.66    2.77
  -4  -3 -15    7.35    2.69
   4   3  15    4.73    2.55
  -4  -3 -16   13.62    3.71
   4   3  16   14.27    3.35
  -3  -3  16   19.30    3.71
   3   3 -16   21.70    5.10
  -3  -3  15   22.06    3.64
   3   3 -15   18.79    3.57
  -3  -3  14   51.63    4.30
  -3  -3  14   54.39    4.51
   3   3 -14   56.21    5.02
   3   3 -14   55.05    4.59
  -3  -3  13   60.95    4.59
   3   3 -13   62.26    4.88
   3   3 -13   59.49    4.59
  -3  -3  12   16.97    2.91
   3   3 -12   11.94    2.69
   3   3 -12   13.33    2.77
  -3  -3  11    3.06    1.89
   3   3 -11    3.50    2.04
   3   3 -11    0.80    1.89
   3   3 -11    1.82    1.82
  -3  -3  10  114.97    5.02
   3   3 -10  118.25    5.32
   3   3 -10  105.95    5.02
   3   3 -10  115.63    4.59
  -3  -3   9  545.82    9.76
  -3  -3   9  564.10    8.23
   3   3  -9  569.56    9.98
   3   3  -9  511.09    9.61
   3   3  -9  562.28    8.66
  -3  -3   8   72.60    3.86
  -3  -3   8   73.47    3.28
   3   3  -8   73.40    3.93
   3   3  -8   69.39    3.42
  -3  -3   7  691.09   10.19
  -3  -3   7  695.24    8.74
   3   3  -7  645.65   10.05
   3   3  -7  667.86    8.59
  -3  -3   6  163.61    4.37
   3   3  -6  158.66    5.10
   3   3  -6  160.63    4.30
  -3  -3   5  348.56    6.12
   3   3  -5  308.52    6.55
   3   3  -5  323.66    5.68
  -3  -3   4  125.39    3.79
   3   3  -4  117.81    2.99
   3   3  -4  112.50    4.00
   3   3  -4  117.23    3.50
  -3  -3   3 1009.87   10.19
   3   3  -3  942.95    8.30
   3   3  -3  921.54   10.41
  -3  -3   2  112.13    3.57
   3   3  -2  107.33    3.06
   3   3  -2  100.70    3.50
  -3  -3   1  447.74    6.84
   3   3  -1  430.77    6.12
   3   3  -1  427.06    6.63
  -3  -3   0  244.22    5.17
  -3  -3   0  241.09    2.91
   3   3   0  240.14    4.81
   3   3   0  233.59    4.81
   3   3   0  255.80    3.42
   3   3   0  225.43    3.13
  -3  -3  -1  210.00    4.88
  -3  -3  -1  204.61    3.06
   3   3   1  208.98    4.66
   3   3   1  201.77    4.30
   3   3   1  217.93    3.64
   3   3   1  183.42    3.28
  -3  -3  -2  170.82    4.51
  -3  -3  -2  175.05    3.20
  -3  -3  -2   -0.07    0.07
  -3  -3  -2  168.35    3.64
   3   3   2  169.22    4.44
   3   3   2  167.62    3.79
   3   3   2  178.47    3.57
   3   3   2  152.11    3.28
  -3  -3  -3  521.94    7.86
  -3  -3  -3  512.76    6.04
  -3  -3  -3  552.23    6.55
  -3  -3  -3  508.61    6.26
   3   3   3  517.64    7.79
   3   3   3  501.99    6.12
   3   3   3  510.14    6.26
  -3  -3  -4   40.63    2.62
  -3  -3  -4   41.43    2.11
  -3  -3  -4   44.27    2.04
  -3  -3  -4   43.91    2.04
   3   3   4   44.13    2.69
   3   3   4   42.82    1.89
   3   3   4   43.98    2.18
   3   3   4   44.20    2.11
  -3  -3  -5    4.88    1.38
  -3  -3  -5    5.39    1.24
  -3  -3  -5    5.53    0.95
  -3  -3  -5    6.19    1.09
   3   3   5    5.46    1.38
   3   3   5    5.46    0.95
   3   3   5    6.04    1.24
  -3  -3  -6  264.83    6.12
  -3  -3  -6  270.58    5.68
  -3  -3  -6  284.05    4.51
  -3  -3  -6  263.95    4.37
   3   3   6  270.94    6.41
   3   3   6  258.86    3.64
  -3  -3  -7  108.93    4.22
  -3  -3  -7  109.00    4.08
  -3  -3  -7  117.09    2.77
  -3  -3  -7  111.26    2.69
   3   3   7  113.74    4.51
  -3  -3  -8   54.54    3.42
  -3  -3  -8   53.23    3.35
   3   3   8   54.83    3.57
  -3  -3  -9  125.10    4.88
  -3  -3  -9  123.13    4.95
   3   3   9  129.25    5.24
  -3  -3 -10  410.75    8.45
  -3  -3 -10  385.41    8.74
   3   3  10  394.00    8.96
  -3  -3 -11   22.28    2.91
  -3  -3 -11   21.70    3.13
   3   3  11   23.52    3.20
  -3  -3 -12   74.64    4.30
  -3  -3 -12   73.11    4.81
   3   3  12   70.70    4.73
  -3  -3 -13   17.99    3.28
  -3  -3 -13   18.35    3.06
   3   3  13   20.32    3.28
  -3  -3 -14    6.48    2.69
  -3  -3 -14    9.54    2.69
   3   3  14    8.01    2.62
  -3  -3 -15   39.76    4.95
  -3  -3 -15   43.32    4.59
   3   3  15   46.46    4.66
  -3  -3 -16   53.96    5.68
   3   3  16   55.78    5.10
  -2  -3  16   40.05    4.59
   2   3 -16   35.75    4.51
  -2  -3  15    9.76    2.77
   2   3 -15    8.74    2.99
  -2  -3  14   21.84    3.28
  -2  -3  14   19.73    3.28
   2   3 -14   20.90    3.50
  -2  -3  13   92.18    4.88
  -2  -3  13  103.98    5.39
   2   3 -13  104.34    5.68
   2   3 -13  101.50    5.17
  -2  -3  12  149.20    6.12
  -2  -3  12  135.00    5.39
  -2  -3  12  149.78    5.97
   2   3 -12  154.29    6.26
   2   3 -12  152.84    5.83
  -2  -3  11  189.32    5.39
  -2  -3  11  171.92    5.68
  -2  -3  11  183.78    6.26
   2   3 -11  196.96    6.55
   2   3 -11  184.29    6.04
   2   3 -11  184.22    5.46
  -2  -3  10  320.24    7.06
  -2  -3  10  333.35    7.79
  -2  -3  10  356.94    6.55
   2   3 -10  353.30    8.08
   2   3 -10  322.35    7.50
   2   3 -10  362.91    6.99
  -2  -3   9  165.51    5.39
  -2  -3   9  168.78    4.51
   2   3  -9  171.62    5.61
   2   3  -9  159.61    5.32
   2   3  -9  178.54    4.81
  -2  -3   8  179.78    5.39
  -2  -3   8  187.50    4.66
   2   3  -8  188.08    5.53
   2   3  -8  173.88    5.24
   2   3  -8  189.83    4.66
  -2  -3   7    4.51    0.73
  -2  -3   7    4.73    1.53
  -2  -3   7    6.04    1.31
   2   3  -7    5.02    1.53
   2   3  -7    3.06    1.38
   2   3  -7    3.57    1.17
  -2  -3   6 1156.95   12.01
  -2  -3   6 1204.43   10.78
   2   3  -6 1160.16   12.01
   2   3  -6 1079.99   11.58
   2   3  -6 1146.47    9.68
  -2  -3   5 1969.13   15.00
  -2  -3   5 1994.54   13.54
   2   3  -5 1744.13   14.20
   2   3  -5 1922.17   11.94
  -2  -3   4 1430.81   12.31
  -2  -3   4 1418.00   11.29
   2   3  -4 1297.20    7.72
   2   3  -4 1278.99   11.72
   2   3  -4 1295.30    9.47
  -2  -3   3 1483.60   11.43
   2   3  -3 1405.33    8.52
   2   3  -3 1383.63   11.72
   2   3  -3 1424.99    9.68
  -2  -3   2  224.12    4.51
   2   3  -2  206.65    3.57
   2   3  -2  191.87    4.30
  -2  -3   1  759.68    8.16
   2   3  -1  713.37    6.84
   2   3  -1  678.71    7.65
  -2  -3   0  665.67    7.65
   2   3   0  625.11    6.77
   2   3   0  629.19    7.06
   2   3   0  664.58    5.17
   2   3   0  569.70    4.81
  -2  -3  -1  621.11    7.50
  -2  -3  -1  599.92    5.32
  -2  -3  -1  629.05    6.48
   2   3   1  607.49    7.06
   2   3   1  577.28    6.55
   2   3   1  648.27    5.83
   2   3   1  527.62    5.24
  -2  -3  -2 1221.83   10.63
  -2  -3  -2 1176.47    8.16
  -2  -3  -2 1282.49    8.96
  -2  -3  -2 1136.93    8.45
   2   3   2 1194.75   10.34
   2   3   2 1126.30    8.66
   2   3   2 1280.38    8.74
   2   3   2 1219.58    8.59
  -2  -3  -3 2041.14   13.98
  -2  -3  -3 1992.43   11.72
  -2  -3  -3 2214.08   11.94
  -2  -3  -3 2013.62   11.36
   2   3   3 2124.74   14.42
   2   3   3 1965.85   10.92
   2   3   3 2167.41   12.01
   2   3   3 2103.47   11.80
  -2  -3  -4  542.54    7.43
  -2  -3  -4  543.56    6.77
  -2  -3  -4  586.81    6.12
  -2  -3  -4  529.87    5.83
   2   3   4  551.50    7.79
   2   3   4  534.46    5.46
   2   3   4  576.33    6.48
   2   3   4  549.24    6.33
  -2  -3  -5  340.34    6.12
  -2  -3  -5  333.78    5.75
  -2  -3  -5  368.01    4.73
  -2  -3  -5  349.22    4.59
   2   3   5  348.20    6.48
   2   3   5  336.33    4.15
  -2  -3  -6  229.51    5.24
  -2  -3  -6  238.61    5.32
  -2  -3  -6  262.64    3.71
  -2  -3  -6  236.79    3.50
   2   3   6  247.79    5.75
   2   3   6  239.56    3.28
  -2  -3  -7   87.81    3.50
  -2  -3  -7   91.97    3.71
  -2  -3  -7   97.13    1.82
   2   3   7   87.23    3.86
   2   3   7   87.74    1.82
  -2  -3  -8  472.13    7.79
  -2  -3  -8  458.30    8.23
   2   3   8  479.05    8.59
  -2  -3  -9   28.62    2.55
  -2  -3  -9   26.94    2.84
   2   3   9   25.27    2.84
  -2  -3 -10  227.18    5.90
  -2  -3 -10  217.86    6.63
   2   3  10  239.20    6.77
  -2  -3 -11  493.68    8.74
  -2  -3 -11  486.55   10.12
   2   3  11  490.70    9.83
  -2  -3 -12   27.60    2.91
  -2  -3 -12   23.96    3.35
  -2  -3 -12   31.89    3.20
   2   3  12   32.04    3.50
  -2  -3 -13    9.90    2.62
  -2  -3 -13   10.78    2.40
   2   3  13   10.92    2.55
  -2  -3 -14    2.55    2.26
  -2  -3 -14    2.77    2.04
   2   3  14    3.50    2.04
  -2  -3 -15   44.78    4.88
   2   3  15   51.48    4.66
  -2  -3 -16   15.22    3.71
   1   3 -17    4.00    2.91
   1   3 -16   28.40    4.15
  -1  -3  15   17.33    3.28
   1   3 -15   21.04    3.57
  -1  -3  14   28.18    3.57
   1   3 -14   28.25    3.71
  -1  -3  13   26.65    3.28
   1   3 -13   31.75    3.86
   1   3 -13   28.25    3.86
  -1  -3  12   99.25    4.88
   1   3 -12  108.79    5.32
   1   3 -12  102.74    4.59
  -1  -3  11   35.46    2.62
  -1  -3  11   32.40    3.06
   1   3 -11   33.20    3.42
   1   3 -11   27.16    2.91
  -1  -3  10  102.23    3.64
  -1  -3  10   93.86    4.15
  -1  -3  10   92.62    3.13
   1   3 -10  104.78    4.66
   1   3 -10   89.85    4.08
   1   3 -10   98.45    3.79
  -1  -3   9  160.56    4.15
  -1  -3   9  147.52    4.66
  -1  -3   9  151.75    3.64
   1   3  -9  160.99    5.24
   1   3  -9  155.75    4.81
   1   3  -9  163.61    4.30
  -1  -3   8  225.73    5.32
  -1  -3   8  229.59    4.08
   1   3  -8  243.49    6.04
   1   3  -8  228.20    5.53
   1   3  -8  264.32    4.95
  -1  -3   7  535.63    5.68
   1   3  -7  567.52    8.52
   1   3  -7  514.22    7.79
   1   3  -7  585.43    6.70
  -1  -3   6 1373.80    8.30
  -1  -3   6 1465.98   12.89
   1   3  -6 1487.75   13.03
   1   3  -6 1380.71   12.16
   1   3  -6 1477.19    9.83
  -1  -3   5 3122.37   11.65
  -1  -3   5 3393.46   23.30
   1   3  -5 3403.87   18.64
   1   3  -5 3093.25   17.40
   1   3  -5 3244.12   13.47
  -1  -3   4  604.73    4.88
  -1  -3   4  625.84    7.72
  -1  -3   4  631.30    7.14
   1   3  -4  613.46    7.65
   1   3  -4  555.87    7.21
   1   3  -4  591.69    5.46
  -1  -3   3 3137.01   19.00
  -1  -3   3 3178.73   26.29
  -1  -3   3 3282.42   21.55
   1   3  -3 2933.64   11.87
   1   3  -3 3216.01   16.46
   1   3  -3 2903.49   19.30
   1   3  -3 2943.97   19.88
  -1  -3   2  300.87    3.50
  -1  -3   2  318.71    4.95
   1   3  -2  290.90    3.50
   1   3  -2  281.43    4.81
  -1  -3   1 1244.84    7.50
  -1  -3   1 1265.45    9.54
   1   3  -1 1219.94    7.72
   1   3  -1 1180.91    9.17
   1   3  -1 1114.28    5.97
   1   3  -1 1053.56    4.44
  -1  -3   0  352.13    5.10
   1   3   0  338.73    4.44
   1   3   0  311.94    4.59
   1   3   0  347.91    3.57
  -1  -3  -1  524.48    5.10
  -1  -3  -1  510.72    5.02
   1   3   1  509.85    5.83
   1   3   1  490.26    5.53
   1   3   1  498.42    4.81
   1   3   1  537.23    4.95
  -1  -3  -2  121.31    3.13
  -1  -3  -2  117.89    2.69
  -1  -3  -2  127.86    2.69
  -1  -3  -2  114.46    2.48
   1   3   2  123.35    3.20
   1   3   2  114.10    2.62
   1   3   2  134.63    2.69
   1   3   2  125.46    2.62
  -1  -3  -3   60.00    2.40
  -1  -3  -3   56.65    2.18
  -1  -3  -3   62.33    1.89
  -1  -3  -3   58.47    1.82
   1   3   3   60.00    2.48
   1   3   3   66.63    2.11
   1   3   3   62.98    2.04
  -1  -3  -4 1040.52    9.17
  -1  -3  -4 1023.63    9.10
  -1  -3  -4 1119.67    7.43
  -1  -3  -4 1016.64    7.06
   1   3   4 1063.46   10.05
  -1  -3  -5   31.24    1.97
  -1  -3  -5   28.11    2.04
  -1  -3  -5   31.53    1.31
  -1  -3  -5   29.34    1.31
   1   3   5   29.85    2.18
  -1  -3  -6  120.14    3.50
  -1  -3  -6  114.25    3.71
   1   3   6  131.65    4.08
  -1  -3  -7  143.95    3.93
  -1  -3  -7  144.90    4.44
   1   3   7  147.60    4.51
  -1  -3  -8   62.11    2.84
  -1  -3  -8   66.48    3.42
   1   3   8   59.13    3.20
  -1  -3  -9  422.03    6.92
  -1  -3  -9  421.31    8.30
   1   3   9  446.86    8.30
  -1  -3 -10    6.33    1.53
  -1  -3 -10    5.68    1.89
   1   3  10    6.26    1.82
  -1  -3 -11   36.70    2.77
  -1  -3 -11   36.19    3.57
  -1  -3 -11   38.08    3.06
   1   3  11   39.03    3.42
  -1  -3 -12   51.19    4.15
  -1  -3 -12   45.80    3.35
   1   3  12   49.22    3.79
  -1  -3 -13   13.98    2.99
  -1  -3 -13   13.69    2.40
   1   3  13   16.82    2.84
  -1  -3 -14   57.52    5.02
   1   3  14   56.94    4.37
  -1  -3 -15   18.06    3.42
   1   3  15   27.31    3.57
  -1  -3 -16    1.82    2.55
  -1  -3 -17    7.94    3.28
   0   3 -18   12.60    3.71
   0   3 -17   24.39    4.22
   0  -3  16   13.47    3.20
   0   3 -16   13.18    3.28
   0  -3  15   93.42    5.75
   0   3 -15  104.93    6.04
   0  -3  14   22.65    3.42
   0   3 -14   25.19    3.64
   0  -3  13  198.86    6.92
   0   3 -13  221.72    7.43
   0  -3  12   39.68    3.57
   0  -3  12   37.14    2.77
   0   3 -12   40.70    3.79
   0   3 -12   42.31    3.20
   0  -3  11  104.20    4.66
   0  -3  11  109.00    3.86
   0   3 -11  117.23    5.10
   0   3 -11  114.61    4.30
   0  -3  10  106.24    4.37
   0  -3  10  107.84    3.64
   0   3 -10  116.94    4.81
   0   3 -10  109.95    4.00
   0  -3   8  146.43    3.50
   0  -3   8  128.74    4.15
   0  -3   8  130.34    3.42
   0   3  -8  144.90    4.66
   0   3  -8  132.45    4.00
   0  -3   7  799.65    7.28
   0  -3   7  750.21    8.96
   0  -3   7  754.22    7.50
   0   3  -7  801.40    9.83
   0   3  -7  787.64    8.88
   0   3  -7  824.85    7.43
   0  -3   6 3807.12   20.17
   0  -3   6 3591.01   17.55
   0   3  -6 3786.59   20.02
   0   3  -6 3523.94   17.84
   0   3  -6 3958.65   14.56
   0  -3   5 3000.55   12.89
   0   3  -5 3310.89   17.69
   0   3  -5 3095.43   16.09
   0   3  -5 3375.40   15.73
   0  -3   4  523.17    5.10
   0   3  -4  564.90    6.92
   0   3  -4  520.19    6.41
   0   3  -4  575.16    4.37
   0  -3   3  752.18    5.83
   0   3  -3  794.05    7.72
   0   3  -3  730.84    7.28
   0   3  -3  769.22    4.44
   0  -3   2 2249.83   13.54
   0  -3   2 2430.34   15.44
   0   3  -2 2349.01    9.47
   0   3  -2 2371.87   12.38
   0   3  -2 2221.07   12.09
   0  -3   1 2057.38   15.44
   0  -3   1 2146.80   20.97
   0  -3   1 2068.67   14.05
   0   3  -1 2085.20    9.98
   0   3  -1 1934.98   10.70
   0   3  -1 1848.48   12.09
   0  -3   0  252.08    3.57
   0  -3   0  261.55    4.00
   0   3   0  251.87    3.42
   0   3   0  262.72    2.99
   0   3   0  245.46    2.91
   0  -3  -1  564.97    5.75
   0  -3  -1    0.00    0.07
   0  -3  -1  559.36    4.81
   0   3   1  569.27    5.61
   0   3   1  612.74    4.95
   0   3   1  559.58    4.73
   0  -3  -2  589.87    5.90
   0  -3  -2  716.06    5.53
   0  -3  -2  554.63    4.88
   0   3   2  586.30    6.19
   0   3   2  615.94    5.24
   0   3   2  587.47    5.10
   0  -3  -3  509.56    5.61
   0  -3  -3  502.93    5.90
   0  -3  -3  608.95    4.95
   0  -3  -3  483.64    4.44
   0   3   3  523.83    6.26
   0  -3  -4  672.30    6.55
   0  -3  -4  653.51    7.21
   0  -3  -4  706.16    4.95
   0  -3  -4  682.64    4.88
   0   3   4  691.67    7.65
   0  -3  -5 1332.44    9.47
   0  -3  -5 1353.55   11.21
   0   3   5 1421.93   11.58
   0  -3  -6  386.65    5.32
   0  -3  -6  406.82    6.70
   0   3   6  402.23    6.55
   0  -3  -7  115.41    3.13
   0  -3  -7  118.83    4.08
   0   3   7  126.41    4.00
   0  -3  -8  396.91    5.83
   0  -3  -8  402.01    7.57
   0   3   8  422.76    7.43
   0  -3  -9  359.20    5.75
   0  -3  -9  334.44    7.35
   0  -3  -9  337.86    6.12
   0   3   9  370.55    7.35
   0  -3 -10  450.00    6.70
   0  -3 -10  432.23    8.81
   0  -3 -10  422.18    7.21
   0   3  10  451.16    8.45
   0  -3 -11  483.71    9.83
   0  -3 -11  489.02    8.23
   0   3  11  512.47    9.32
   0  -3 -12  142.86    6.04
   0  -3 -12  140.53    4.88
   0   3  12  153.13    5.61
   0  -3 -13   13.11    2.84
   0  -3 -13   14.27    2.33
   0   3  13   19.00    2.84
   0  -3 -14    1.38    2.04
   0   3  14    0.36    1.67
   0  -3 -15    3.50    2.40
   0   3  15    5.83    2.18
   0  -3 -16    9.03    3.13
   0  -3 -17   45.95    5.53
  -1   3 -18   16.89    3.79
  -1   3 -17    1.31    2.62
   1  -3  16   47.84    5.02
  -1   3 -16   50.90    5.24
   1  -3  15    4.59    2.55
  -1   3 -15    4.44    2.69
   1  -3  14  154.00    6.70
  -1   3 -14  167.62    6.99
   1  -3  13   55.05    4.30
   1  -3  13   52.28    3.50
  -1   3 -13   63.71    4.59
   1  -3  12  373.32    8.88
   1  -3  12  358.98    7.50
  -1   3 -12  402.67    9.17
   1  -3  11   62.69    3.86
   1  -3  11   59.56    3.20
  -1   3 -11   67.21    4.15
  -1   3 -11   59.56    3.06
   1  -3  10  252.23    6.55
   1  -3  10  249.54    5.68
  -1   3 -10  270.07    6.84
  -1   3 -10  261.33    5.39
   1  -3   9   72.01    3.50
   1  -3   9   74.56    3.13
  -1   3  -9   70.85    3.71
  -1   3  -9   79.51    3.06
   1  -3   8   27.74    2.33
   1  -3   8   30.66    2.04
  -1   3  -8   31.89    2.62
  -1   3  -8   31.53    2.11
   1  -3   7  582.01    8.16
   1  -3   7  568.68    7.06
  -1   3  -7  612.01    8.52
  -1   3  -7  584.48    7.06
   1  -3   6  108.93    2.99
  -1   3  -6  118.25    3.71
  -1   3  -6  115.56    3.13
   1  -3   5 1889.54   11.29
  -1   3  -5 1957.92   13.33
  -1   3  -5 1970.44   11.87
   1  -3   4 1662.73    9.90
  -1   3  -4 1755.05   11.72
  -1   3  -4 1729.35   10.70
   1  -3   3  253.54    3.71
  -1   3  -3  293.52    4.00
  -1   3  -3  277.72    4.44
   1  -3   2 3411.52   23.45
  -1   3  -2 3680.79   22.86
  -1   3  -2 3644.60   27.16
   1  -3   1 4261.05   30.66
  -1   3  -1 4113.31   28.54
  -1   3  -1 4247.51   29.42
  -1   3  -1 4436.90   15.73
  -1   3  -1 4182.77   21.41
  -1   3  -1 3770.93   23.16
   1  -3   0 2173.59   19.66
   1  -3   0 2302.04   16.89
   1  -3   0 2345.87   10.27
   1  -3   0 2265.78   17.99
  -1   3   0 2176.51   17.99
  -1   3   0 2273.64   15.15
  -1   3   0 2306.63   14.13
  -1   3   0 2065.46   16.97
   1  -3  -1 5672.35   36.41
   1  -3  -1 5741.74   31.16
   1  -3  -1 5535.67   34.37
  -1   3   1 5443.27   37.72
  -1   3   1 5527.01   34.08
  -1   3   1 5969.65   33.28
  -1   3   1   -0.07    0.07
   1  -3  -2  554.12    5.75
   1  -3  -2  545.82    4.95
   1  -3  -2  642.23    4.73
   1  -3  -2  544.51    4.30
  -1   3   2  526.74    5.32
  -1   3   2  531.18    5.61
   1  -3  -3 1529.62   10.56
   1  -3  -3 1511.56    6.55
   1  -3  -3 1398.26    7.43
  -1   3   3 1449.52    8.74
  -1   3   3 1446.17    9.90
   1  -3  -4   32.48    1.38
   1  -3  -4   34.08    1.97
  -1   3   4   33.64    1.53
  -1   3   4   34.73    1.89
   1  -3  -5  605.38    5.46
   1  -3  -5  617.18    7.57
  -1   3   5  639.46    5.90
  -1   3   5  641.28    7.57
   1  -3  -6   46.60    1.75
   1  -3  -6   43.40    2.48
  -1   3   6   50.39    1.82
  -1   3   6   48.64    2.48
   1  -3  -7  448.32    5.02
   1  -3  -7  458.88    7.50
   1  -3  -7  435.51    5.46
  -1   3   7  474.24    5.02
  -1   3   7  465.58    7.21
   1  -3  -8  339.75    4.59
   1  -3  -8  341.36    6.99
   1  -3  -8  332.18    5.24
  -1   3   8  356.65    6.70
   1  -3  -9  462.88    5.61
   1  -3  -9  465.21    8.52
   1  -3  -9  454.73    6.55
  -1   3   9  490.41    8.16
   1  -3 -10   53.23    3.57
   1  -3 -10   46.38    2.62
  -1   3  10   53.66    3.20
   1  -3 -11   65.24    4.15
   1  -3 -11   64.00    3.20
  -1   3  11   66.84    3.71
   1  -3 -12  315.29    8.45
   1  -3 -12  292.79    6.48
  -1   3  12  315.51    7.57
   1  -3 -13    4.00    2.18
  -1   3  13    6.48    2.04
   1  -3 -14    2.84    2.26
  -1   3  14    0.95    1.67
   1  -3 -15   28.54    4.15
  -1   3  15   25.85    4.22
   1  -3 -16   37.21    4.81
   1  -3 -17   17.18    3.86
  -2   3 -18   41.43    5.32
  -2   3 -17   57.89    5.83
   2  -3  16   42.82    4.95
  -2   3 -16   47.40    5.10
   2  -3  15   30.15    4.22
   2  -3  15   27.67    3.42
  -2   3 -15   36.12    4.37
   2  -3  14   38.74    4.15
   2  -3  14   37.21    3.42
  -2   3 -14   40.27    4.30
   2  -3  13    6.33    2.18
   2  -3  13    5.24    1.82
  -2   3 -13    5.17    2.33
   2  -3  12   38.08    3.57
   2  -3  12   41.94    3.28
  -2   3 -12   40.99    3.93
   2  -3  11  317.11    7.86
   2  -3  11  327.01    7.21
  -2   3 -11  330.14    8.08
   2  -3  10  350.97    7.79
   2  -3  10  364.00    7.21
  -2   3 -10  364.00    7.94
  -2   3 -10  368.66    5.75
   2  -3   9  353.15    4.22
   2  -3   9  348.42    7.35
   2  -3   9  342.67    6.63
  -2   3  -9  359.05    7.50
  -2   3  -9  357.67    5.53
   2  -3   8  655.62    5.39
   2  -3   8  634.87    9.25
   2  -3   8  650.82    8.59
  -2   3  -8  676.16    9.54
  -2   3  -8  665.89    7.21
   2  -3   7  236.36    3.06
   2  -3   7  221.50    5.24
   2  -3   7  229.73    4.88
  -2   3  -7  242.91    5.53
  -2   3  -7  234.39    4.22
   2  -3   6  237.67    2.84
   2  -3   6  233.95    4.66
  -2   3  -6  262.42    3.64
  -2   3  -6  255.07    4.22
   2  -3   5 2103.55   12.89
  -2   3  -5 2359.64   10.70
  -2   3  -5 2236.72   14.27
   2  -3   4  480.21    5.83
  -2   3  -4  524.34    5.17
   2  -3   3  764.41    6.92
  -2   3  -3  849.31    6.55
  -2   3  -3  808.83    7.28
   2  -3   2  542.32    5.61
  -2   3  -2  606.18    5.61
  -2   3  -2  558.56    5.53
  -2   3  -2  617.18    3.86
  -2   3  -2  538.68    3.64
   2  -3   1 1458.26    8.81
   2  -3   1 1522.05    6.48
  -2   3  -1 1579.06    9.03
  -2   3  -1 1513.67    8.01
  -2   3  -1 1381.44    9.39
   2  -3   0 2216.41   19.30
   2  -3   0 2204.47   10.78
   2  -3   0  713.80    5.02
   2  -3   0 2255.95   17.48
  -2   3   0 2271.46   13.76
  -2   3   0 2496.24   13.25
   2  -3  -1  170.46    3.13
   2  -3  -1  177.16    1.97
   2  -3  -1  166.16    2.69
   2  -3  -1  168.57    2.48
   2  -3  -1  169.00    2.40
  -2   3   1  167.11    3.06
  -2   3   1  175.19    1.97
  -2   3   1  195.29    2.69
  -2   3   1  170.02    2.55
   2  -3  -2 4061.03   31.60
   2  -3  -2 4063.28   27.74
   2  -3  -2 3893.19   18.93
   2  -3  -2 3758.48   23.59
  -2   3   2 3914.09   25.92
   2  -3  -3 1899.67   11.00
   2  -3  -3 1958.06   10.49
   2  -3  -3 1900.54   11.00
  -2   3   3 1869.45   12.82
  -2   3   3 1813.02   10.78
   2  -3  -4   25.34    1.02
   2  -3  -4   23.45    1.75
   2  -3  -4   26.07    1.82
  -2   3   4   25.56    1.46
  -2   3   4   26.29    1.75
   2  -3  -5   45.44    1.31
   2  -3  -5   46.38    2.40
   2  -3  -5   40.78    1.31
   2  -3  -5   42.89    2.40
  -2   3   5   43.25    1.82
  -2   3   5   43.98    2.26
   2  -3  -6  104.20    1.89
   2  -3  -6  108.49    3.57
   2  -3  -6  103.11    2.26
   2  -3  -6  112.64    3.71
  -2   3   6  111.70    2.69
  -2   3   6  111.55    3.64
  -2   3   6  107.40    3.42
   2  -3  -7  147.45    2.33
   2  -3  -7  148.18    4.44
   2  -3  -7  147.74    2.99
   2  -3  -7  157.28    4.59
  -2   3   7  166.38    3.20
  -2   3   7  156.19    4.51
  -2   3   7  155.17    4.22
   2  -3  -8   63.49    3.35
   2  -3  -8   62.77    2.26
  -2   3   8   55.34    1.97
  -2   3   8   65.17    3.35
  -2   3   8   67.72    3.13
   2  -3  -9  618.93    9.76
   2  -3  -9  608.66    7.06
  -2   3   9  605.38    9.61
  -2   3   9  626.06    9.03
   2  -3 -10   10.49    2.11
   2  -3 -10   13.40    1.67
  -2   3  10   11.58    1.97
   2  -3 -11   31.97    3.28
   2  -3 -11   35.32    2.48
  -2   3  11   34.37    2.91
   2  -3 -12  110.31    5.39
  -2   3  12  116.36    4.81
   2  -3 -13  211.75    7.43
  -2   3  13  227.40    6.70
   2  -3 -14  149.12    6.84
  -2   3  14  140.97    5.68
   2  -3 -15   43.03    4.81
   2  -3 -16   18.35    3.64
   2  -3 -17   94.37    6.63
  -3   3 -18   33.35    6.19
  -3   3 -17   58.83    5.83
   3  -3  16    8.66    3.13
   3  -3  16    6.77    2.33
  -3   3 -16    8.88    3.06
   3  -3  15    3.35    2.40
   3  -3  15    1.09    1.82
  -3   3 -15    4.30    2.48
   3  -3  14    0.87    2.11
   3  -3  14    2.62    1.75
  -3   3 -14    0.07    1.97
   3  -3  13   14.78    2.91
   3  -3  13   14.27    2.55
  -3   3 -13   15.00    2.91
   3  -3  12  138.06    5.90
   3  -3  12  141.62    5.46
  -3   3 -12  155.10    6.19
   3  -3  11  460.55    9.61
   3  -3  11  459.46    8.96
  -3   3 -11  472.06    9.61
   3  -3  10  448.47    7.65
   3  -3  10  403.10    8.52
   3  -3  10  402.01    8.01
  -3   3 -10  423.71    8.66
   3  -3   9  354.39    5.10
   3  -3   9  340.12    7.43
   3  -3   9  335.89    6.99
  -3   3  -9  359.34    7.65
  -3   3  -9  359.41    5.02
   3  -3   8  386.87    5.02
   3  -3   8  381.91    7.35
   3  -3   8  384.53    7.06
  -3   3  -8  396.11    7.57
  -3   3  -8  409.00    5.17
   3  -3   7  114.54    2.69
   3  -3   7  110.31    3.71
  -3   3  -7  113.37    4.00
  -3   3  -7  119.71    2.84
   3  -3   6  384.97    4.59
   3  -3   6  372.01    6.26
  -3   3  -6  434.05    4.81
  -3   3  -6  377.04    6.55
   3  -3   5 1344.02    8.23
   3  -3   5 1333.60   11.07
  -3   3  -5 1475.81    8.88
  -3   3  -5 1325.37   11.29
   3  -3   4  622.28    7.14
  -3   3  -4  711.11    6.26
  -3   3  -4  622.20    7.21
   3  -3   3  508.83    6.12
  -3   3  -3  542.83    5.53
  -3   3  -3  493.98    5.90
  -3   3  -3  548.51    4.00
  -3   3  -3  527.62    3.93
   3  -3   2  541.74    6.04
  -3   3  -2  579.61    5.83
  -3   3  -2  539.05    5.61
  -3   3  -2  610.92    4.73
  -3   3  -2  533.22    4.44
   3  -3   1  535.19    5.75
   3  -3   1  531.69    4.37
   3  -3   1  357.59    3.86
   3  -3   1  560.31    4.81
  -3   3  -1  568.47    5.83
  -3   3  -1  534.68    4.95
  -3   3  -1  588.56    4.88
  -3   3  -1  524.99    4.59
   3  -3   0  245.53    3.86
   3  -3   0  246.55    3.28
   3  -3   0  243.27    3.13
   3  -3   0  236.21    3.06
  -3   3   0  247.64    3.93
  -3   3   0  234.32    2.84
  -3   3   0  272.69    3.35
  -3   3   0  113.30    2.18
   3  -3  -1 2166.09   13.91
   3  -3  -1 2126.63   10.27
   3  -3  -1 2086.94    9.61
   3  -3  -1 2121.46   13.98
  -3   3   1 2082.36   11.21
  -3   3   1 2108.06    7.79
   3  -3  -2 2367.21   17.04
   3  -3  -2 2370.63   16.60
   3  -3  -2 2292.06    8.66
   3  -3  -2 2312.23   14.42
  -3   3   2 2288.79   11.87
   3  -3  -3  843.71    7.28
   3  -3  -3  802.71    7.57
  -3   3   3  771.91    6.99
   3  -3  -4  616.38    6.48
   3  -3  -4  601.01    7.14
  -3   3   4  585.36    6.19
   3  -3  -5 3179.89   16.82
   3  -3  -5 3433.00   18.06
  -3   3   5 3312.13   21.84
   3  -3  -6 3756.73   24.17
   3  -3  -6 3851.61   17.62
   3  -3  -6 4061.46   30.58
  -3   3   6 3868.43   18.93
   3  -3  -7  788.88    9.61
   3  -3  -7  830.89    6.19
   3  -3  -7  839.70   10.27
  -3   3   7  848.58    7.57
  -3   3   7  818.22   10.05
   3  -3  -8  144.39    4.66
   3  -3  -8  140.10    3.06
   3  -3  -8  138.20    4.66
  -3   3   8  143.15    3.28
  -3   3   8  144.97    4.73
   3  -3  -9   13.62    2.18
   3  -3 -10  113.96    4.81
   3  -3 -10  122.69    3.50
   3  -3 -10  116.43    4.95
  -3   3  10  122.26    4.88
  -3   3  10  124.00    4.44
   3  -3 -11  104.85    4.95
  -3   3  11  115.99    5.10
  -3   3  11  113.08    4.51
   3  -3 -12   42.67    3.93
  -3   3  12   43.18    3.86
  -3   3  12   43.76    3.35
   3  -3 -13  213.86    7.43
  -3   3  13  236.65    6.77
   3  -3 -14   16.97    3.28
  -3   3  14   19.95    2.84
   3  -3 -15   97.72    6.04
   3  -3 -16   17.26    3.57
   3  -3 -17   23.59    4.15
   4  -3  18   22.35    4.22
   4  -3  17   28.98    4.08
  -4   3 -17   30.51    4.51
   4  -3  16   13.76    2.99
  -4   3 -16   20.90    3.93
   4  -3  15   12.60    3.20
   4  -3  15    8.30    2.55
  -4   3 -15    9.98    2.99
   4  -3  14    9.47    2.84
   4  -3  14    7.21    2.33
  -4   3 -14    9.61    2.84
   4  -3  13   27.45    3.79
   4  -3  13   23.23    3.13
  -4   3 -13   22.06    3.42
   4  -3  12   77.91    4.81
   4  -3  12   73.40    4.44
  -4   3 -12   76.89    4.81
   4  -3  11  844.94   13.03
   4  -3  11  827.90   12.45
  -4   3 -11  872.83   13.18
   4  -3  10  127.79    3.79
   4  -3  10  124.59    5.10
   4  -3  10  119.34    4.88
  -4   3 -10  138.49    5.39
   4  -3   9  129.32    3.64
   4  -3   9  115.48    4.66
   4  -3   9  118.03    4.51
  -4   3  -9  129.68    4.95
   4  -3   8  509.63    6.70
   4  -3   8  501.04    8.45
  -4   3  -8  514.87    8.81
  -4   3  -8  540.72    5.53
   4  -3   7  164.42    3.71
   4  -3   7  164.63    4.73
  -4   3  -7  181.67    3.42
  -4   3  -7  165.29    4.95
   4  -3   6   57.96    2.33
   4  -3   6   57.52    2.84
  -4   3  -6   66.70    2.26
  -4   3  -6   59.85    2.99
   4  -3   5  124.66    3.13
   4  -3   5  124.00    3.79
  -4   3  -5  136.82    3.13
  -4   3  -5  120.22    3.71
   4  -3   4   97.50    2.77
   4  -3   4   96.55    3.20
  -4   3  -4  102.09    2.77
  -4   3  -4  100.05    3.20
  -4   3  -4  106.75    2.11
  -4   3  -4  107.91    2.11
   4  -3   3 1307.75   10.56
  -4   3  -3 1383.12    9.68
  -4   3  -3 1344.96   10.27
  -4   3  -3 1490.66    8.23
  -4   3  -3 1301.64    7.65
   4  -3   2 1401.03   10.34
   4  -3   2 1629.74    9.25
   4  -3   2 1387.34    8.52
  -4   3  -2 1510.83   10.19
  -4   3  -2 1364.84    9.47
  -4   3  -2 1549.86    8.66
  -4   3  -2 1415.81    8.30
   4  -3   1  369.03    5.17
   4  -3   1  421.02    4.59
   4  -3   1  377.40    4.30
  -4   3  -1  384.03    5.32
  -4   3  -1  415.19    4.59
  -4   3  -1  356.06    4.22
   4  -3   0  308.01    4.51
   4  -3   0  307.42    4.37
   4  -3   0  327.59    3.86
   4  -3   0  303.06    3.64
  -4   3   0  321.33    4.88
  -4   3   0  328.76    4.00
   4  -3  -1  758.29    6.92
   4  -3  -1  739.51    6.99
   4  -3  -1  757.49    5.17
   4  -3  -1  760.48    5.17
  -4   3   1  748.90    7.43
   4  -3  -2  675.65    6.48
   4  -3  -2  652.57    6.99
   4  -3  -2  640.92    3.50
   4  -3  -2  658.68    3.57
  -4   3   2  636.11    6.99
   4  -3  -3  944.55    7.72
   4  -3  -3  906.76    8.66
  -4   3   3  877.13    8.23
   4  -3  -4 1461.68    9.83
   4  -3  -4 1427.97   11.58
  -4   3   4 1349.84   10.27
   4  -3  -5  471.18    6.55
   4  -3  -5  474.02    7.21
  -4   3   5  464.12    6.19
   4  -3  -6  609.53    7.94
   4  -3  -6  646.52    8.81
  -4   3   6  630.14    7.21
   4  -3  -7   84.83    3.42
   4  -3  -7   90.29    2.18
   4  -3  -7   85.70    3.71
  -4   3   7   84.83    2.91
  -4   3   7   90.44    2.11
   4  -3  -8  231.04    5.75
   4  -3  -8  238.32    3.71
   4  -3  -8  247.21    6.26
  -4   3   8  236.58    4.59
  -4   3   8  235.48    3.71
   4  -3  -9  468.34    8.45
   4  -3  -9  492.74    5.90
   4  -3  -9  487.93    9.03
  -4   3   9  480.72    6.41
  -4   3   9  462.52    8.74
  -4   3   9  495.58    5.83
   4  -3 -10   58.62    3.86
   4  -3 -10   64.30    4.08
  -4   3  10   57.31    3.71
   4  -3 -11   65.53    4.22
   4  -3 -11   72.01    4.59
  -4   3  11   67.86    4.22
  -4   3  11   65.82    3.71
   4  -3 -12  267.74    7.79
   4  -3 -12  283.18    8.23
  -4   3  12  262.50    7.79
  -4   3  12  270.00    6.99
   4  -3 -13   45.29    4.37
  -4   3  13   52.86    4.37
  -4   3  13   48.13    3.57
   4  -3 -14    2.99    2.26
  -4   3  14    0.87    2.04
   4  -3 -15   51.84    4.95
   4  -3 -16   10.56    3.13
   4  -3 -17    2.26    2.69
   5  -3  17    1.97    2.26
  -5   3 -17    2.84    2.91
   5  -3  16    4.95    2.33
  -5   3 -16    5.97    2.99
   5  -3  15   35.75    4.22
  -5   3 -15   38.59    4.73
   5  -3  14   59.13    4.73
  -5   3 -14   61.75    5.10
   5  -3  13   84.68    5.10
  -5   3 -13   88.83    5.53
   5  -3  12   40.92    3.79
  -5   3 -12   40.85    4.08
   5  -3  11   35.97    2.84
   5  -3  11   33.06    3.42
  -5   3 -11   37.72    3.79
   5  -3  10  153.64    4.51
   5  -3  10  145.99    5.53
  -5   3 -10  148.69    5.83
   5  -3   9   63.57    2.99
   5  -3   9   59.78    3.64
  -5   3  -9   66.99    4.00
   5  -3   8   28.40    2.18
   5  -3   8   28.11    2.62
  -5   3  -8   29.64    1.89
  -5   3  -8   25.34    2.77
   5  -3   7  218.66    4.88
   5  -3   7  208.83    5.61
  -5   3  -7  239.12    4.37
  -5   3  -7  212.62    5.75
   5  -3   6  252.96    5.10
   5  -3   6  248.08    5.83
  -5   3  -6  280.26    4.81
  -5   3  -6  252.30    5.90
   5  -3   5   97.21    3.20
   5  -3   5   99.17    3.64
  -5   3  -5  102.67    3.13
  -5   3  -5  100.56    3.71
  -5   3  -5  115.99    2.40
  -5   3  -5  113.30    2.40
   5  -3   4 1104.82    9.98
   5  -3   4 1095.64   10.85
  -5   3  -4 1165.26    9.83
  -5   3  -4 1238.94    8.30
   5  -3   3  386.79    6.19
   5  -3   3  433.03    5.46
   5  -3   3  380.75    5.10
  -5   3  -3  415.70    5.97
  -5   3  -3  417.45    5.02
  -5   3  -3  386.50    4.81
   5  -3   2  288.35    5.17
   5  -3   2  328.32    4.59
   5  -3   2  260.46    4.08
  -5   3  -2  302.25    5.17
  -5   3  -2  317.91    4.44
  -5   3  -2  284.34    4.22
   5  -3   1  778.32    7.94
   5  -3   1  863.36    7.06
   5  -3   1  756.84    6.55
  -5   3  -1  818.51    8.45
  -5   3  -1  948.41    7.57
   5  -3   0  199.00    4.00
   5  -3   0  195.29    4.08
   5  -3   0  208.69    3.28
   5  -3   0  164.49    2.91
  -5   3   0  199.29    4.37
   5  -3  -1  612.45    6.55
   5  -3  -1  590.89    7.06
   5  -3  -1  601.09    4.81
   5  -3  -1  627.08    4.88
  -5   3   1  627.74    7.57
   5  -3  -2 1431.10    9.76
   5  -3  -2 1346.71   11.00
  -5   3   2 1383.34   11.29
   5  -3  -3 1997.38   11.43
   5  -3  -3 1890.05   13.62
  -5   3   3 1867.26   13.18
   5  -3  -4  503.51    5.90
   5  -3  -4  485.67    7.35
  -5   3   4  472.35    6.84
   5  -3  -5   21.99    1.60
   5  -3  -5   21.63    1.89
   5  -3  -5   20.61    2.18
  -5   3   5   23.52    2.04
   5  -3  -6  173.37    4.37
   5  -3  -6  186.70    5.17
  -5   3   6  169.00    4.30
   5  -3  -7  602.62    8.45
   5  -3  -7  640.41    9.68
  -5   3   7  620.24    8.01
   5  -3  -8  315.43    6.55
   5  -3  -8  322.72    7.35
  -5   3   8  326.43    5.97
   5  -3  -9  152.40    5.02
   5  -3  -9  172.35    5.90
  -5   3   9  164.05    4.44
   5  -3 -10   37.14    3.28
   5  -3 -10   40.12    3.93
  -5   3  10   37.65    2.99
   5  -3 -11  286.02    7.57
   5  -3 -11  298.76    8.30
  -5   3  11  280.48    7.86
   5  -3 -12   82.94    4.81
   5  -3 -12   90.58    5.46
  -5   3  12   80.90    4.88
  -5   3  12   84.90    4.30
   5  -3 -13   13.47    2.91
   5  -3 -13   12.82    2.99
  -5   3  13   15.95    3.06
  -5   3  13   14.93    2.48
   5  -3 -14   67.21    5.10
   5  -3 -14   71.94    5.61
  -5   3  14   74.71    5.32
   5  -3 -15    9.10    2.91
  -5   3  15    4.15    2.55
   5  -3 -16   10.34    3.20
   5  -3 -17   74.34    6.33
   6  -3  16   16.97    3.50
  -6   3 -16   21.99    4.08
   6  -3  15   18.49    3.50
  -6   3 -15   19.08    3.79
   6  -3  14   47.84    4.59
  -6   3 -14   57.16    5.17
   6  -3  13   46.67    4.37
  -6   3 -13   58.83    5.02
   6  -3  12   16.60    3.06
  -6   3 -12   13.03    2.99
   6  -3  11    1.31    1.38
   6  -3  11    3.13    1.82
  -6   3 -11    2.91    2.11
   6  -3  10  110.17    4.37
   6  -3  10  103.40    5.02
  -6   3 -10  107.98    5.32
   6  -3   9  519.53    8.59
   6  -3   9  492.96    9.76
  -6   3  -9  507.23    9.98
   6  -3   8   69.39    3.42
   6  -3   8   68.66    3.86
  -6   3  -8   72.16    2.99
  -6   3  -8   68.15    3.93
   6  -3   7  635.31    8.96
   6  -3   7  650.45   10.19
  -6   3  -7  704.85    8.23
  -6   3  -7  638.66   10.12
   6  -3   6  146.65    4.37
   6  -3   6  146.94    4.88
  -6   3  -6  154.15    4.08
  -6   3  -6  159.76    3.06
  -6   3  -6  158.15    3.06
   6  -3   5  306.77    6.04
   6  -3   5  306.26    6.48
  -6   3  -5  332.62    5.90
  -6   3  -5  335.89    4.73
  -6   3  -5  351.11    4.88
   6  -3   4  108.79    3.71
   6  -3   4  107.04    3.86
   6  -3   4  116.36    3.28
  -6   3  -4  117.16    3.71
  -6   3  -4  123.06    3.13
   6  -3   3  950.74   10.27
   6  -3   3 1038.27    9.03
  -6   3  -3  997.34   10.12
  -6   3  -3 1023.85    8.74
  -6   3  -3  910.84    8.23
   6  -3   2  100.78    3.42
   6  -3   2  107.55    2.99
   6  -3   2   94.22    2.69
  -6   3  -2  111.12    3.64
  -6   3  -2   93.06    2.77
   6  -3   1  432.30    6.41
   6  -3   1  434.05    5.39
   6  -3   1  413.37    5.24
  -6   3  -1  446.21    6.99
  -6   3  -1  455.46    5.83
  -6   3  -1  337.13    4.95
   6  -3   0  226.45    4.51
   6  -3   0  214.08    4.81
   6  -3   0  223.40    3.64
   6  -3   0  199.29    3.42
  -6   3   0  229.22    5.17
   6  -3  -1  211.02    4.22
   6  -3  -1  204.83    4.81
   6  -3  -1  207.74    2.99
   6  -3  -1  206.28    2.99
  -6   3   1  204.76    4.88
   6  -3  -2  196.38    3.93
   6  -3  -2  190.70    4.81
  -6   3   2  188.66    4.81
   6  -3  -3  554.12    6.33
   6  -3  -3  524.12    7.94
  -6   3   3  529.15    7.79
   6  -3  -4   52.43    2.18
   6  -3  -4   45.00    2.84
  -6   3   4   51.19    2.84
   6  -3  -5   11.50    1.31
   6  -3  -5    9.17    1.46
   6  -3  -5   10.85    1.89
  -6   3   5    7.50    1.53
   6  -3  -6  297.59    5.68
   6  -3  -6  288.20    6.70
  -6   3   6  277.72    5.90
   6  -3  -7  109.80    3.86
   6  -3  -7  122.40    4.88
  -6   3   7  118.91    4.15
   6  -3  -8   56.50    3.28
  -6   3   8   55.48    3.20
   6  -3  -9  124.80    4.66
   6  -3  -9  134.34    5.61
  -6   3   9  120.58    4.37
   6  -3 -10  390.00    8.16
   6  -3 -10  429.17    9.68
  -6   3  10  410.09    7.35
   6  -3 -11   16.53    2.69
   6  -3 -11   19.08    3.20
   6  -3 -12   66.99    4.44
   6  -3 -12   83.30    5.53
  -6   3  12   70.34    4.88
   6  -3 -13   19.30    3.13
   6  -3 -13   22.94    3.79
  -6   3  13   20.02    3.57
   6  -3 -14    6.26    2.55
   6  -3 -14    5.32    2.77
  -6   3  14    3.64    2.40
   6  -3 -15   49.22    4.88
   6  -3 -15   46.75    5.46
  -6   3  15   44.78    4.88
   6  -3 -16   50.61    5.32
  -6   3  16   53.59    5.46
   7  -3  16   25.70    6.41
   7  -3  15   27.67    4.08
  -7   3 -15   27.45    4.37
   7  -3  14    1.09    2.04
  -7   3 -14   -0.44    2.33
   7  -3  13    2.69    2.11
  -7   3 -13    4.22    2.62
   7  -3  12    2.84    1.97
  -7   3 -12    4.81    2.48
   7  -3  11   79.08    4.30
   7  -3  11   78.13    5.02
  -7   3 -11   85.19    5.39
   7  -3  10   39.83    3.28
   7  -3  10   40.99    3.86
  -7   3 -10   35.61    4.08
   7  -3   9  264.83    6.77
   7  -3   9  255.94    7.50
  -7   3  -9  266.57    7.79
   7  -3   8  216.62    6.12
   7  -3   8  214.22    6.70
  -7   3  -8  224.63    5.39
  -7   3  -8  216.33    6.77
   7  -3   7  248.23    6.33
   7  -3   7  255.29    6.99
  -7   3  -7  276.04    5.90
  -7   3  -7  272.33    4.15
  -7   3  -7  266.65    4.15
   7  -3   6  308.30    6.84
   7  -3   6  319.29    7.35
  -7   3  -6  337.57    6.48
  -7   3  -6  350.31    5.24
  -7   3  -6  357.52    5.32
   7  -3   5  218.37    5.75
   7  -3   5  221.72    5.97
  -7   3  -5  228.71    5.46
  -7   3  -5  238.91    4.59
  -7   3  -5  238.32    4.59
   7  -3   4   90.80    3.86
   7  -3   4   94.00    3.86
  -7   3  -4  104.34    3.93
  -7   3  -4  109.00    3.28
   7  -3   3  138.06    4.37
   7  -3   3  147.30    3.79
   7  -3   3  125.31    3.42
  -7   3  -3  141.19    4.44
  -7   3  -3  148.61    3.79
  -7   3  -3  148.98    3.71
   7  -3   2  181.89    4.73
   7  -3   2  197.26    4.15
   7  -3   2  169.73    3.79
  -7   3  -2  188.37    5.10
  -7   3  -2  201.41    4.37
  -7   3  -2  160.99    3.86
   7  -3   1   78.93    3.20
   7  -3   1   82.86    2.62
   7  -3   1   78.79    2.55
  -7   3  -1   82.86    3.57
  -7   3  -1   86.29    3.50
  -7   3  -1   82.79    2.91
  -7   3  -1   71.72    2.62
   7  -3   0   95.39    3.28
   7  -3   0   90.58    3.71
   7  -3   0   91.24    2.55
   7  -3   0   88.83    2.40
  -7   3   0   94.66    3.86
  -7   3   0   90.00    3.35
   7  -3  -1  324.68    5.46
   7  -3  -1  314.78    6.48
   7  -3  -1  332.40    3.79
   7  -3  -1  330.80    3.71
  -7   3   1  324.17    6.63
  -7   3   1  334.00    5.83
   7  -3  -2  157.35    3.79
   7  -3  -2  151.82    4.73
  -7   3   2  149.20    4.73
   7  -3  -3  248.23    4.51
   7  -3  -3  243.20    5.97
  -7   3   3  237.38    5.83
   7  -3  -4  222.45    4.15
   7  -3  -4  210.51    5.83
  -7   3   4  206.28    5.61
   7  -3  -5  159.83    3.57
   7  -3  -5  147.81    3.86
   7  -3  -5  146.50    5.10
  -7   3   5  144.10    4.81
   7  -3  -6  142.50    4.08
   7  -3  -6  143.30    5.32
  -7   3   6  132.16    4.73
   7  -3  -7  384.97    6.77
   7  -3  -7  388.61    8.52
  -7   3   7  379.66    7.65
   7  -3  -8  179.93    5.10
   7  -3  -8  189.03    6.48
  -7   3   8  175.56    5.46
   7  -3  -9  163.54    5.24
   7  -3  -9  166.45    6.41
  -7   3   9  173.52    5.46
   7  -3 -10    8.16    2.11
   7  -3 -10   12.74    2.99
  -7   3  10    8.16    2.04
   7  -3 -11   10.12    2.40
   7  -3 -11    8.88    2.91
   7  -3 -12    2.11    1.97
   7  -3 -12    3.50    2.84
   7  -3 -13    2.69    2.77
  -7   3  13    0.73    2.33
   7  -3 -14   26.29    4.30
  -7   3  14   22.50    3.86
   7  -3 -15   36.26    5.10
  -7   3  15   37.43    5.02
   7  -3 -16   15.58    4.08
  -7   3  16   17.11    3.86
   8  -3  15   21.04    4.37
  -8   3 -15   27.74    4.95
   8  -3  14   11.94    3.28
  -8   3 -14   12.38    3.57
   8  -3  13   17.04    3.50
  -8   3 -13   19.81    3.93
   8  -3  12   49.15    4.08
   8  -3  12   51.63    4.73
  -8   3 -12   44.93    5.10
   8  -3  11   20.39    2.99
   8  -3  11   15.73    2.99
  -8   3 -11   15.95    3.28
   8  -3  10   10.63    2.40
   8  -3  10    8.45    2.40
  -8   3 -10    9.76    2.69
   8  -3   9   57.45    4.08
   8  -3   9   50.46    4.22
  -8   3  -9   54.83    4.51
   8  -3   8   11.21    2.33
   8  -3   8   11.94    2.55
  -8   3  -8   15.36    2.33
  -8   3  -8   15.44    1.53
  -8   3  -8   16.60    1.60
   8  -3   7  161.58    5.83
   8  -3   7  175.19    6.19
  -8   3  -7  187.06    5.46
  -8   3  -7  192.74    4.15
  -8   3  -7  183.49    4.08
   8  -3   6  181.45    5.97
   8  -3   6  184.37    6.04
  -8   3  -6  195.00    5.53
  -8   3  -6  193.47    4.44
  -8   3  -6  196.38    4.51
   8  -3   5  147.38    5.32
   8  -3   5  151.38    5.39
  -8   3  -5  156.33    5.10
  -8   3  -5  154.59    4.15
  -8   3  -5  153.78    4.15
   8  -3   4  196.16    5.90
   8  -3   4  198.78    5.75
  -8   3  -4  217.28    5.90
  -8   3  -4  214.29    7.72
   8  -3   3   97.35    4.08
   8  -3   3  107.62    3.57
   8  -3   3   88.91    3.13
  -8   3  -3  100.56    4.30
   8  -3   2  163.91    4.88
   8  -3   2  167.77    4.08
   8  -3   2  153.28    3.86
  -8   3  -2  168.49    5.32
  -8   3  -2  158.37    5.10
   8  -3   1  378.86    6.84
   8  -3   1  387.88    5.61
   8  -3   1  366.84    5.39
  -8   3  -1  378.35    7.72
  -8   3  -1  382.13    7.35
   8  -3   0  104.71    3.71
   8  -3   0  105.51    4.37
   8  -3   0  113.52    2.84
   8  -3   0   98.59    2.62
  -8   3   0  107.47    4.51
  -8   3   0  107.04    4.08
   8  -3  -1  419.92    6.63
   8  -3  -1  400.70    7.94
   8  -3  -1  442.35    4.08
   8  -3  -1  412.35    3.93
  -8   3   1  398.44    8.01
  -8   3   1  432.30    7.21
   8  -3  -2   12.82    1.67
   8  -3  -2   12.31    2.18
  -8   3   2   11.94    2.18
  -8   3   2   14.27    1.89
   8  -3  -3    4.73    1.17
   8  -3  -3    5.39    1.82
  -8   3   3    4.59    1.67
  -8   3   3    5.46    1.38
   8  -3  -4    4.51    1.17
   8  -3  -4    4.95    1.24
   8  -3  -4    5.46    1.89
  -8   3   4    4.30    1.75
   8  -3  -5   40.34    2.40
   8  -3  -5   36.63    3.42
  -8   3   5   34.08    3.28
   8  -3  -6   17.26    2.11
   8  -3  -6   13.91    2.62
  -8   3   6   16.09    2.55
   8  -3  -7   93.57    5.10
  -8   3   7   93.86    4.66
   8  -3  -8  288.57    8.30
  -8   3   8  279.61    7.28
   8  -3  -9   21.99    3.57
  -8   3   9   19.15    2.77
   8  -3 -10  153.57    6.92
  -8   3  10  147.16    5.68
   8  -3 -11   42.89    4.95
   8  -3 -12   83.08    6.04
   8  -3 -13   39.03    4.95
   8  -3 -14   58.11    6.19
  -8   3  14   56.29    5.46
   8  -3 -15   33.35    5.10
  -8   3  15   22.06    4.30
   9  -3  14   23.59    4.66
  -9   3 -14   31.38    5.02
   9  -3  13   21.19    3.86
  -9   3 -13   25.34    4.59
   9  -3  12   36.84    4.30
   9  -3  12   35.82    4.66
  -9   3 -12   38.15    5.02
   9  -3  11   75.44    5.17
   9  -3  11   65.17    5.32
  -9   3 -11   80.68    5.83
   9  -3  10  146.58    6.41
   9  -3  10  148.40    6.92
  -9   3 -10  148.76    7.06
   9  -3   9   41.58    4.15
   9  -3   9   37.86    4.15
   9  -3   8   27.89    3.42
   9  -3   8   27.82    3.64
  -9   3  -8   32.91    3.28
  -9   3  -8   33.42    2.11
  -9   3  -8   36.19    2.26
   9  -3   7    3.28    2.04
   9  -3   7    5.39    2.11
  -9   3  -7    3.28    1.75
  -9   3  -7    3.71    1.24
  -9   3  -7    4.30    1.38
   9  -3   6   47.62    3.93
   9  -3   6   52.43    4.00
  -9   3  -6   53.52    3.71
  -9   3  -6   49.81    2.91
   9  -3   5   98.23    4.88
   9  -3   5   94.95    4.73
  -9   3  -5  106.31    4.73
   9  -3   4  178.40    5.83
  -9   3  -4  184.37    6.04
   9  -3   3  278.44    6.84
  -9   3  -3  277.28    7.21
  -9   3  -3  282.74    7.43
   9  -3   2   18.93    2.48
   9  -3   2   18.06    1.89
   9  -3   2   17.84    1.82
  -9   3  -2   15.51    2.55
  -9   3  -2   18.42    2.77
   9  -3   1  259.15    6.12
   9  -3   1  273.71    4.88
   9  -3   1  235.56    4.51
  -9   3  -1  258.93    7.06
  -9   3  -1  266.50    6.84
   9  -3   0  114.68    4.15
   9  -3   0  109.73    4.95
   9  -3   0  117.01    2.91
   9  -3   0  105.07    2.69
  -9   3   0  111.04    5.02
  -9   3   0  115.85    4.66
   9  -3  -1 1134.16   11.29
   9  -3  -1 1116.54   14.13
  -9   3   1 1131.69   14.27
  -9   3   1 1189.58   12.89
   9  -3  -2  135.22    4.08
   9  -3  -2  130.56    5.46
  -9   3   2  135.44    5.46
  -9   3   2  143.74    4.73
   9  -3  -3  129.17    5.53
  -9   3   3  121.24    5.32
  -9   3   3  129.68    4.37
   9  -3  -4  178.91    6.33
  -9   3   4  177.52    6.26
  -9   3   4  181.75    4.81
   9  -3  -5    9.32    2.48
  -9   3   5    9.98    2.40
   9  -3  -6  108.35    5.61
  -9   3   6  105.14    5.24
   9  -3  -7  217.06    7.57
  -9   3   7  198.57    6.77
   9  -3  -8  174.54    7.14
  -9   3   8  177.89    6.55
   9  -3  -9  400.12   10.49
  -9   3   9  366.04    8.96
   9  -3 -10   20.10    3.71
  -9   3  10   20.97    3.20
   9  -3 -11   22.14    4.22
   9  -3 -12   32.40    4.81
   9  -3 -13    8.37    3.57
   9  -3 -14   66.77    6.77
 -10   3 -13    5.68    5.61
  10  -3  12  110.90    6.41
  10  -3  12   99.10    6.70
 -10   3 -12  110.82    7.28
  10  -3  11    8.16    2.77
  10  -3  11    4.59    2.69
 -10   3 -11    7.65    3.06
  10  -3  10   27.38    3.79
  10  -3  10   27.82    4.08
 -10   3 -10   28.25    4.22
  10  -3   9   20.90    3.42
  10  -3   9   18.28    3.42
 -10   3  -9   20.61    1.82
 -10   3  -9   19.22    1.89
  10  -3   8   12.23    2.91
  10  -3   8   13.69    3.06
 -10   3  -8   15.51    1.89
 -10   3  -8   13.69    1.89
  10  -3   7    9.90    2.69
  10  -3   7    9.54    2.69
 -10   3  -7    8.37    2.33
  10  -3   6   18.79    3.13
  10  -3   6   20.61    3.13
 -10   3  -6   19.22    2.91
  10  -3   5   55.19    4.15
 -10   3  -5   66.99    4.44
  10  -3   4   19.59    2.84
 -10   3  -4   19.08    2.91
  10  -3   3  261.04    7.06
 -10   3  -3  258.64    7.57
 -10   3  -3  256.16    7.65
  10  -3   2   34.95    3.28
  10  -3   2   39.17    2.48
  10  -3   2   33.20    2.26
 -10   3  -2   32.40    3.79
 -10   3  -2   32.11    3.64
  10  -3   1   63.20    3.79
  10  -3   1   70.99    2.77
  10  -3   1   64.88    2.62
 -10   3  -1   64.44    4.51
 -10   3  -1   68.96    4.44
  10  -3   0  249.90    6.12
  10  -3   0  240.87    7.43
  10  -3   0  248.15    3.79
  10  -3   0  241.16    3.79
 -10   3   0  237.59    7.43
 -10   3   0  256.67    7.06
  10  -3  -1  571.74   10.70
  10  -3  -1  567.96   11.00
 -10   3   1  564.82   11.07
 -10   3   1  580.12    9.83
  10  -3  -2   13.11    2.91
 -10   3   2   16.89    3.06
 -10   3   2   14.20    2.48
  10  -3  -3  275.75    8.23
 -10   3   3  267.96    8.01
 -10   3   3  279.03    6.63
  10  -3  -4   30.00    3.79
 -10   3   4   30.95    3.79
  10  -3  -5  160.27    6.77
 -10   3   5  160.85    6.63
  10  -3  -6   39.61    4.51
 -10   3   6   37.94    4.15
  10  -3  -7   39.32    4.66
 -10   3   7   41.87    4.30
  10  -3  -8   54.39    5.24
 -10   3   8   50.32    4.59
  10  -3  -9  216.48    8.52
 -10   3   9  208.47    7.57
  10  -3 -10   36.19    4.88
 -10   3  10   30.58    3.86
  10  -3 -11    9.76    3.42
  10  -3 -12   75.29    6.70
  10  -3 -13   42.23    5.53
  11  -3  12  134.12    7.57
  11  -3  11   43.32    5.24
  11  -3  11   32.18    4.59
 -11   3 -11   29.27    4.73
  11  -3  10   57.67    5.53
  11  -3  10   53.74    5.53
  11  -3   9    4.08    2.69
  11  -3   9    5.17    2.84
 -11   3  -9    5.17    1.38
 -11   3  -9    4.81    1.38
  11  -3   8    9.39    3.06
  11  -3   8    6.63    2.69
 -11   3  -8   10.19    3.35
  11  -3   7   57.67    4.95
 -11   3  -7   62.18    4.73
  11  -3   6   12.52    2.84
 -11   3  -6   12.38    2.84
  11  -3   5  125.75    5.90
 -11   3  -5  128.74    6.12
  11  -3   4   81.55    4.81
 -11   3  -4   95.97    5.53
  11  -3   3   22.35    3.06
 -11   3  -3   25.12    3.57
 -11   3  -3   23.16    3.57
  11  -3   2    0.22    1.60
  11  -3   2   -0.22    1.09
  11  -3   2    0.80    1.02
 -11   3  -2    0.73    2.11
 -11   3  -2   -2.04    1.82
  11  -3   1    9.83    2.40
  11  -3   1    9.25    2.77
  11  -3   1   10.85    1.46
  11  -3   1   10.27    1.38
 -11   3  -1    9.17    2.77
 -11   3  -1    9.47    2.69
  11  -3   0  196.02    7.35
 -11   3   0  191.50    7.35
 -11   3   0  201.19    6.84
  11  -3  -1   59.85    4.95
 -11   3   1   56.21    4.88
 -11   3   1   63.13    4.37
  11  -3  -2   39.61    4.44
 -11   3   2   43.40    4.51
 -11   3   2   39.68    3.71
  11  -3  -3   10.12    3.06
 -11   3   3   11.29    2.91
  11  -3  -4   89.64    5.83
 -11   3   4   86.29    5.61
  11  -3  -5   18.42    3.64
 -11   3   5   18.57    3.28
  11  -3  -6    5.61    2.84
 -11   3   6    4.37    2.55
  11  -3  -7    8.23    3.13
 -11   3   7    6.33    2.77
  11  -3  -8   13.69    3.50
 -11   3   8   13.11    3.13
  11  -3  -9   71.14    6.04
 -11   3   9   69.83    5.61
  11  -3 -10   34.88    5.02
 -11   3  10   35.53    4.44
  11  -3 -11   29.85    4.81
  12  -3  10   19.66    4.00
  12  -3   9   15.00    3.50
 -12   3  -9   12.09    1.89
 -12   3  -9   11.36    1.82
  12  -3   8   11.72    3.13
  12  -3   7   12.60    2.99
 -12   3  -7   15.58    3.28
  12  -3   6    1.17    2.11
 -12   3  -6    1.67    2.48
  12  -3   5   59.93    4.73
 -12   3  -5   61.82    5.24
  12  -3   4   16.60    2.99
 -12   3  -4   17.48    3.50
  12  -3   3   72.16    3.42
  12  -3   3   65.02    3.20
 -12   3  -3   74.20    5.61
  12  -3   2   74.42    2.99
  12  -3   2   67.86    2.84
 -12   3  -2   86.43    5.90
 -12   3  -2   74.64    5.32
  12  -3   1   49.95    4.95
 -12   3  -1   50.17    5.10
 -12   3  -1   47.91    4.73
  12  -3   0    8.45    2.84
 -12   3   0    9.03    2.99
 -12   3   0    9.39    2.77
  12  -3  -1  101.43    6.26
 -12   3   1   96.70    6.19
 -12   3   1   98.96    5.46
  12  -3  -2    5.39    2.84
 -12   3   2    9.83    2.99
  12  -3  -3   29.13    4.30
 -12   3   3   29.78    4.30
  12  -3  -4   77.55    5.97
 -12   3   4   82.86    6.04
  12  -3  -5   83.08    6.33
 -12   3   5   86.87    6.19
  12  -3  -6   19.15    4.00
 -12   3   6   15.66    3.64
  12  -3  -7   35.68    4.88
 -12   3   7   31.24    4.37
  12  -3  -8   16.24    3.93
 -12   3   8   17.40    3.71
  12  -3  -9   58.03    6.19
 -12   3   9   57.96    5.68
  12  -3 -10  114.76   12.16
 -12   3  10   91.67    6.63
  13  -3   8   52.94    5.61
  13  -3   7   10.27    3.06
  13  -3   6   76.38    5.75
 -13   3  -6   71.80    5.97
 -13   3  -5    2.33    2.77
 -13   3  -4   33.57    4.66
  13  -3   3   24.83    2.33
  13  -3   3   21.63    2.26
 -13   3  -3   22.06    4.08
  13  -3   2   17.18    3.79
 -13   3  -2   18.49    3.79
  13  -3   1   -0.36    2.48
 -13   3  -1    0.51    2.62
  13  -3   0   12.01    3.64
 -13   3   0   11.72    3.64
  13  -3  -1   69.39    6.19
 -13   3   1   65.97    6.04
  13  -3  -2   16.38    3.79
 -13   3   2   17.91    3.86
  13  -3  -3   12.89    3.71
 -13   3   3   19.08    4.00
  13  -3  -4   19.88    4.00
 -13   3   4   20.61    4.08
  13  -3  -5    3.86    3.20
 -13   3   5    1.46    2.84
  13  -3  -6    4.73    3.06
 -13   3   6    7.14    3.28
  13  -3  -7   55.34    6.26
 -13   3   7   58.47    6.04
 -13   3   8   20.10    4.15
 -14   3  -6    4.59    3.06
 -14   3  -5   21.41    4.15
  14  -3   4   10.78    1.97
  14  -3   4    8.37    1.75
 -14   3  -4   11.58    3.79
  14  -3   3   27.82    5.17
 -14   3  -3   28.69    4.73
  14  -3   2   29.71    4.81
 -14   3  -2   34.30    5.10
  14  -3   1   81.84    6.77
 -14   3  -1   96.19    7.28
  14  -3   0    1.82    3.13
 -14   3   0    5.10    3.42
  14  -3  -1   17.33    4.22
 -14   3   1   28.54    4.95
  14  -3  -2   -1.31    2.99
 -14   3   2    3.79    3.42
 -11  -4   2    6.99    4.08
 -11  -4   2    4.37    4.30
  11   4  -2    5.17    3.86
  10   4  -6  112.43   10.63
 -10  -4   5   30.80    4.81
  10   4  -5   36.48    5.17
  10   4  -5   34.66    4.95
 -10  -4   4   32.99    4.95
 -10  -4   4   36.77    4.95
  10   4  -4   36.04    5.02
  10   4  -4   34.95    4.73
 -10  -4   3   19.44    4.00
 -10  -4   3   16.16    3.71
  10   4  -3   20.24    4.08
  10   4  -3   15.00    3.71
 -10  -4   2   17.62    3.71
 -10  -4   2   16.67    3.71
  10   4  -2   16.53    3.64
  10   4  -2   14.42    3.57
 -10  -4   1    7.94    2.99
 -10  -4   1    9.76    3.28
  10   4  -1   14.85    3.57
 -10  -4   0  100.63    6.70
  10   4   0   93.57    6.41
  10   4   0   91.89    6.48
 -10  -4  -1    9.98    3.35
  10   4   1   12.52    3.28
 -10  -4  -2   33.35    4.88
  10   4   2   28.11    4.30
 -10  -4  -3    4.88    3.06
  10   4   3    4.88    3.06
 -10  -4  -4   10.05    3.50
  10   4   4    9.39    3.42
  10   4   4   10.63    1.67
  10   4   4   10.41    1.46
  10   4   5   36.48    6.55
  10   4   5   35.02    4.08
  10   4   5   31.53    2.55
  -9  -4   8    7.72    4.15
   9   4  -8   13.25    4.37
  -9  -4   7    9.90    3.64
   9   4  -7   11.72    3.64
  -9  -4   6    4.37    3.06
   9   4  -6    6.55    3.13
   9   4  -6    5.97    2.91
  -9  -4   5   14.85    3.28
   9   4  -5   14.05    3.64
   9   4  -5   13.18    3.35
  -9  -4   4   91.53    5.97
   9   4  -4   83.37    6.19
   9   4  -4   85.70    6.04
  -9  -4   3  119.34    6.55
   9   4  -3  121.82    6.77
   9   4  -3  124.37    6.77
  -9  -4   2    7.57    2.84
   9   4  -2    9.76    3.06
   9   4  -2    8.88    3.06
  -9  -4   1   35.46    4.59
   9   4  -1   39.76    4.59
   9   4  -1   41.87    4.59
  -9  -4   0   54.39    4.88
  -9  -4   0   57.89    5.24
   9   4   0   53.15    5.02
   9   4   0   57.96    4.88
  -9  -4  -1   46.16    4.66
  -9  -4  -1   43.25    4.95
   9   4   1   41.43    4.73
   9   4   1   42.31    4.30
  -9  -4  -2   19.95    3.79
   9   4   2   21.92    3.71
  -9  -4  -3   24.54    4.15
   9   4   3   15.87    3.50
   9   4   3   19.95    2.04
   9   4   3   16.53    1.67
  -9  -4  -4    7.65    2.99
   9   4   4    6.63    2.91
   9   4   4    6.26    1.75
   9   4   4    4.88    1.38
  -9  -4  -5   31.82    4.73
   9   4   5   22.06    3.93
  -9  -4  -6   42.96    5.39
   9   4   6   44.49    5.39
  -9  -4  -7   14.42    3.71
   9   4   7   11.29    3.42
  -9  -4  -8    7.94    3.64
   9   4   8    4.00    3.64
  -8  -4  10   28.69    4.73
   8   4 -10   31.60    4.95
  -8  -4   9   15.29    3.71
   8   4  -9   17.33    4.08
   8   4  -8   54.54    5.75
   8   4  -7   41.21    5.17
   8   4  -7   29.64    3.93
  -8  -4   6   11.07    2.77
   8   4  -6   10.34    3.13
   8   4  -6    5.68    2.62
  -8  -4   5    5.32    2.40
   8   4  -5    4.95    2.62
   8   4  -5    2.62    2.33
  -8  -4   4   80.97    5.24
   8   4  -4   75.51    5.53
   8   4  -4   79.59    5.46
  -8  -4   3   15.51    3.06
   8   4  -3   13.03    3.06
   8   4  -3   11.43    2.84
  -8  -4   2  216.77    7.72
   8   4  -2  197.91    7.06
   8   4  -2  207.74    7.65
  -8  -4   1  218.81    7.86
   8   4  -1  212.98    7.43
   8   4  -1  213.86    7.50
  -8  -4   0   71.94    5.24
   8   4   0   66.48    4.95
   8   4   0   76.46    4.95
  -8  -4  -1   49.59    4.73
   8   4   1   50.61    4.59
   8   4   1   45.95    4.08
  -8  -4  -2   23.01    3.71
   8   4   2   18.42    3.35
   8   4   2   28.11    3.42
   8   4   2   25.56    1.82
   8   4   2   22.06    1.60
  -8  -4  -3    5.90    2.62
   8   4   3    7.86    2.77
   8   4   3    8.08    1.60
   8   4   3    5.83    1.31
  -8  -4  -4   16.09    3.35
   8   4   4   16.53    3.28
  -8  -4  -5   75.95    5.61
   8   4   5   74.64    5.61
  -8  -4  -6   32.33    4.59
   8   4   6   24.61    3.79
  -8  -4  -7    4.37    2.69
   8   4   7    2.77    2.40
  -8  -4  -8    0.58    2.33
   8   4   8   -0.07    2.18
  -8  -4  -9    3.13    2.62
   8   4   9    3.06    2.62
  -8  -4 -10   13.98    3.71
  -8  -4 -10   13.98    1.89
  -8  -4 -10   10.12    1.75
   8   4  10    4.88    2.91
  -7  -4  12  131.43    7.86
   7   4 -12  134.85    8.59
  -7  -4  11    2.84    2.84
   7   4 -11    3.13    3.28
   7   4 -10   13.91    3.64
   7   4  -9    4.44    2.84
   7   4  -8   32.84    4.44
   7   4  -8   44.05    6.48
  -7  -4   7   55.34    5.53
   7   4  -7   57.96    5.24
   7   4  -7   58.91    4.59
  -7  -4   6   16.02    2.84
   7   4  -6   15.00    3.20
   7   4  -6   17.18    3.06
  -7  -4   5   11.21    2.62
   7   4  -5   13.11    2.99
   7   4  -5   11.36    2.62
  -7  -4   4   51.63    4.30
   7   4  -4   57.09    4.73
   7   4  -4   48.20    4.15
  -7  -4   3   41.50    4.00
   7   4  -3   41.50    3.71
   7   4  -3   43.25    4.15
   7   4  -3   43.98    4.15
  -7  -4   2   90.58    5.24
   7   4  -2   89.42    4.73
   7   4  -2   88.69    5.10
  -7  -4   1  282.30    8.16
   7   4  -1  277.72    7.72
   7   4  -1  287.62    8.08
  -7  -4   0   12.82    2.77
   7   4   0   15.07    2.77
   7   4   0   13.62    2.62
  -7  -4  -1   81.63    5.10
   7   4   1   67.72    4.51
   7   4   1   80.97    4.44
  -7  -4  -2  137.26    6.19
   7   4   2  124.22    5.83
   7   4   2  128.23    5.24
   7   4   2  129.25    3.57
   7   4   2  109.22    3.20
  -7  -4  -3   78.13    5.10
   7   4   3   76.67    4.95
   7   4   3   78.57    4.15
   7   4   3   76.31    3.28
   7   4   3   68.52    2.91
  -7  -4  -4   54.32    4.59
   7   4   4   49.44    4.44
  -7  -4  -5   29.34    3.93
   7   4   5   30.51    3.86
  -7  -4  -6    6.19    2.55
   7   4   6    2.11    2.18
  -7  -4  -7   17.84    3.35
   7   4   7   16.53    3.20
  -7  -4  -8   50.32    4.88
   7   4   8   46.53    4.88
  -7  -4  -9   22.57    3.93
  -7  -4  -9   14.93    2.04
  -7  -4  -9   17.26    2.18
   7   4   9   17.33    3.57
  -7  -4 -10    9.83    3.06
  -7  -4 -10   10.70    1.60
  -7  -4 -10    7.57    1.38
   7   4  10    9.17    3.06
  -7  -4 -11   30.22    4.51
   7   4  11   23.88    4.15
  -7  -4 -12    6.26    2.99
   7   4  12    4.81    3.13
  -6  -4  13   31.67    4.59
   6   4 -13   32.26    4.88
   6   4 -12   -1.02    2.69
   6   4 -11   52.86    5.53
   6   4 -10    2.18    2.55
   6   4  -9   81.33    5.75
   6   4  -8   55.70    4.81
   6   4  -8   61.09    4.37
  -6  -4   7   29.71    3.35
   6   4  -7   29.34    3.86
   6   4  -7   29.64    3.42
  -6  -4   6  115.19    5.17
   6   4  -6  108.86    5.75
   6   4  -6  103.40    5.02
  -6  -4   5  259.15    7.28
   6   4  -5  250.12    7.86
   6   4  -5  236.36    6.84
  -6  -4   4   82.64    4.59
   6   4  -4   69.83    4.59
   6   4  -4   67.50    4.15
  -6  -4   3  366.70    8.52
   6   4  -3  344.49    7.50
   6   4  -3  346.38    8.59
  -6  -4   2  175.56    6.26
   6   4  -2  170.53    5.61
   6   4  -2  167.26    6.04
  -6  -4   1  220.19    6.84
   6   4  -1  198.71    6.12
   6   4  -1  203.81    6.41
  -6  -4   0  104.20    5.10
   6   4   0  100.27    4.73
   6   4   0   91.09    4.44
  -6  -4  -1  439.29    9.54
   6   4   1  432.74    9.10
   6   4   1  412.20    8.37
   6   4   1  448.25    5.46
   6   4   1  370.26    4.88
  -6  -4  -2   29.56    3.50
   6   4   2   30.58    3.28
   6   4   2   31.24    2.91
   6   4   2   32.91    2.33
   6   4   2   26.07    1.89
  -6  -4  -3    9.61    2.48
   6   4   3    8.66    2.26
   6   4   3   10.19    1.97
   6   4   3    9.10    1.60
   6   4   3    9.03    1.53
  -6  -4  -4   51.99    4.22
   6   4   4   51.33    4.15
   6   4   4   46.53    3.50
  -6  -4  -5   43.69    4.15
   6   4   5   42.74    3.93
  -6  -4  -6   10.41    2.69
   6   4   6    8.96    2.40
  -6  -4  -7   66.63    4.81
   6   4   7   63.93    4.81
  -6  -4  -8   34.15    4.08
  -6  -4  -8   37.50    2.99
  -6  -4  -8   33.57    2.48
   6   4   8   27.45    3.71
  -6  -4  -9   38.08    4.22
  -6  -4  -9   43.32    2.55
  -6  -4  -9   40.34    2.48
   6   4   9   38.01    4.30
  -6  -4 -10   82.43    5.46
   6   4  10   84.39    5.68
  -6  -4 -11   14.13    3.20
   6   4  11   13.40    3.28
  -6  -4 -12   -0.44    1.97
   6   4  12   -0.73    2.11
  -6  -4 -13  115.41    6.63
   6   4  13  114.25    6.99
  -5  -4  15    8.08    3.28
   5   4 -15    8.66    3.64
  -5  -4  14   30.51    4.37
   5   4 -14   24.76    4.30
   5   4 -13   12.60    3.50
   5   4 -12    2.33    2.62
   5   4 -11    1.67    2.55
   5   4 -10   21.84    3.64
   5   4  -9    1.97    2.26
  -5  -4   8   43.76    3.50
   5   4  -8   37.21    4.00
   5   4  -8   38.23    3.42
  -5  -4   7   97.06    4.51
   5   4  -7   84.25    5.10
   5   4  -7   96.26    4.51
  -5  -4   6  203.08    6.12
   5   4  -6  192.96    6.77
   5   4  -6  205.34    5.97
  -5  -4   5  151.09    5.39
   5   4  -5  137.98    5.68
   5   4  -5  136.16    4.95
  -5  -4   4  226.16    6.33
   5   4  -4  210.80    5.32
   5   4  -4  219.68    6.70
   5   4  -4  223.54    6.04
  -5  -4   3   97.57    4.44
   5   4  -3   85.48    3.79
   5   4  -3   91.97    4.51
  -5  -4   2   91.53    4.37
   5   4  -2   86.80    3.86
   5   4  -2   84.76    4.15
  -5  -4   1  506.50    9.32
   5   4  -1  477.23    8.37
   5   4  -1  468.13    8.74
  -5  -4   0   55.12    3.64
   5   4   0   49.95    3.35
   5   4   0   53.23    3.35
  -5  -4  -1  334.88    7.79
   5   4   1  325.99    7.35
   5   4   1  321.04    6.92
   5   4   1  338.52    4.88
   5   4   1  290.60    4.51
  -5  -4  -2   64.66    4.00
   5   4   2   67.79    3.86
   5   4   2   68.66    3.42
   5   4   2   69.47    2.77
   5   4   2   60.51    2.48
  -5  -4  -3   26.14    3.13
   5   4   3   23.16    2.84
   5   4   3   25.92    2.40
   5   4   3   27.67    2.18
   5   4   3   24.83    1.97
  -5  -4  -4   24.98    3.20
   5   4   4   22.43    2.99
   5   4   4   20.68    2.11
  -5  -4  -5   35.82    3.50
  -5  -4  -5   39.03    2.62
   5   4   5   35.75    3.50
  -5  -4  -6  252.01    7.43
  -5  -4  -6  236.58    5.75
   5   4   6  240.00    7.35
  -5  -4  -7  237.52    7.43
  -5  -4  -7  222.67    5.97
  -5  -4  -7  238.18    5.32
  -5  -4  -7  231.48    5.24
   5   4   7  232.79    7.57
  -5  -4  -8  170.31    6.63
  -5  -4  -8  163.69    5.61
  -5  -4  -8  177.60    4.44
  -5  -4  -8  164.78    4.22
   5   4   8  165.80    6.70
  -5  -4  -9   54.25    4.51
  -5  -4  -9   50.61    3.79
  -5  -4  -9   56.80    2.48
  -5  -4  -9   54.32    2.40
   5   4   9   55.34    4.59
  -5  -4 -10   11.58    2.69
  -5  -4 -10   15.22    2.84
   5   4  10   13.33    3.06
  -5  -4 -11    0.51    1.89
  -5  -4 -11   -0.66    1.75
   5   4  11    0.00    1.97
  -5  -4 -12   18.35    3.35
  -5  -4 -12   15.00    3.06
   5   4  12   15.44    3.42
  -5  -4 -13    3.57    2.33
  -5  -4 -13    2.48    2.40
   5   4  13    2.26    2.40
  -5  -4 -14   24.83    4.15
   5   4  14   25.78    4.30
  -5  -4 -15    4.00    2.77
  -5  -4 -15    4.95    3.57
  -4  -4  15    2.69    2.55
   4   4 -15   -0.22    2.55
   4   4 -14   18.79    3.64
   4   4 -13   31.46    4.22
   4   4 -12   10.41    2.99
   4   4 -11   36.63    4.37
   4   4 -10   67.06    5.02
  -4  -4   9   82.79    4.08
   4   4  -9   62.98    4.66
   4   4  -9   75.44    4.37
  -4  -4   8   85.92    4.15
   4   4  -8   81.55    4.88
   4   4  -8   85.19    4.08
  -4  -4   7  746.86   10.56
   4   4  -7  709.07   11.87
   4   4  -7  709.29    9.83
  -4  -4   6  309.97    6.99
   4   4  -6  285.94    7.50
   4   4  -6  287.33    6.26
  -4  -4   5  114.97    4.44
   4   4  -5  101.94    4.73
   4   4  -5  105.73    4.00
  -4  -4   4  108.86    4.30
   4   4  -4  105.73    3.50
   4   4  -4  105.95    4.51
   4   4  -4  101.29    3.86
  -4  -4   3   71.21    3.57
   4   4  -3   69.32    3.06
   4   4  -3   68.52    3.71
  -4  -4   2  358.39    7.28
   4   4  -2  333.05    6.26
   4   4  -2  337.79    7.21
  -4  -4   1  648.42    9.76
   4   4  -1  621.98    8.66
   4   4  -1  601.16    9.25
  -4  -4   0  298.61    6.77
  -4  -4   0  271.45    3.42
   4   4   0  281.36    6.19
   4   4   0  266.36    6.04
   4   4   0  286.60    3.71
   4   4   0  247.42    3.42
  -4  -4  -1  227.91    6.04
  -4  -4  -1  220.85    3.50
   4   4   1  212.33    5.53
   4   4   1  210.58    5.32
   4   4   1  230.31    4.08
   4   4   1  200.60    3.79
  -4  -4  -2  122.91    4.59
  -4  -4  -2  116.72    2.91
   4   4   2  121.31    4.44
   4   4   2  116.79    3.93
   4   4   2  129.68    3.42
   4   4   2  117.89    3.28
  -4  -4  -3   72.01    3.71
  -4  -4  -3   72.89    2.62
   4   4   3   67.79    3.64
   4   4   3   67.86    2.99
   4   4   3   73.25    2.84
   4   4   3   62.84    2.62
  -4  -4  -4   14.93    2.33
  -4  -4  -4   16.53    1.82
   4   4   4   16.89    2.40
   4   4   4   17.48    1.89
  -4  -4  -5  220.56    6.41
  -4  -4  -5  212.69    5.02
  -4  -4  -5  219.83    5.68
   4   4   5  210.94    6.33
   4   4   5  205.19    4.51
  -4  -4  -6   55.70    3.71
  -4  -4  -6   54.68    3.06
  -4  -4  -6   58.18    2.77
  -4  -4  -6   56.94    2.69
   4   4   6   54.98    3.79
  -4  -4  -7   49.44    3.71
  -4  -4  -7   47.26    3.20
  -4  -4  -7   53.66    2.55
  -4  -4  -7   50.10    2.48
   4   4   7   41.72    3.57
  -4  -4  -8  557.83   10.49
  -4  -4  -8  535.04    9.47
  -4  -4  -8  584.19    6.92
  -4  -4  -8  550.33    6.70
   4   4   8  554.19   10.92
  -4  -4  -9   28.40    3.50
  -4  -4  -9   32.11    3.28
  -4  -4  -9   31.16    1.67
  -4  -4  -9   30.15    1.60
   4   4   9   31.67    3.79
  -4  -4 -10   54.83    4.22
  -4  -4 -10   45.15    3.86
   4   4  10   45.87    4.15
  -4  -4 -11   12.23    2.77
  -4  -4 -11   10.27    2.48
   4   4  11   13.03    2.91
  -4  -4 -12    2.33    1.89
  -4  -4 -12    2.04    1.97
   4   4  12    1.89    2.04
  -4  -4 -13   45.87    4.37
  -4  -4 -13   47.48    4.66
   4   4  13   50.90    4.95
  -4  -4 -14   23.96    3.93
  -4  -4 -14   26.80    4.00
   4   4  14   27.67    4.22
  -4  -4 -15    3.93    2.77
   4   4  15    2.04    2.40
   4   4  16   21.19    6.26
  -3  -4  16   26.58    4.22
  -3  -4  15   32.40    4.44
  -3  -4  14    1.75    2.33
   3   4 -14   -1.02    2.26
  -3  -4  13    3.20    2.33
   3   4 -13    4.22    2.48
  -3  -4  12    4.95    2.33
   3   4 -12    5.32    2.40
  -3  -4  11   99.97    5.39
   3   4 -11   87.74    5.32
  -3  -4  10   45.44    4.00
  -3  -4  10   45.36    3.28
   3   4 -10   41.58    4.08
  -3  -4   9  300.29    7.94
  -3  -4   9  298.69    6.70
   3   4  -9  274.51    7.72
   3   4  -9  285.07    6.33
  -3  -4   8  241.31    6.99
  -3  -4   8  236.07    6.04
   3   4  -8  221.07    6.84
   3   4  -8  234.75    5.53
  -3  -4   7  269.41    6.26
   3   4  -7  244.00    6.84
   3   4  -7  263.01    5.61
  -3  -4   6  338.73    6.84
   3   4  -6  304.80    7.21
   3   4  -6  325.41    5.97
  -3  -4   5  235.34    5.75
   3   4  -5  221.36    6.12
   3   4  -5  218.95    4.88
  -3  -4   4  120.22    4.22
   3   4  -4  105.00    3.06
   3   4  -4  101.50    4.22
   3   4  -4  105.44    3.50
  -3  -4   3  141.70    4.44
   3   4  -3  131.94    3.50
   3   4  -3  124.51    4.44
  -3  -4   2  201.33    5.17
   3   4  -2  192.16    4.30
   3   4  -2  178.18    4.95
  -3  -4   1   69.90    3.28
   3   4  -1   76.16    2.99
   3   4  -1   68.74    3.20
   3   4   0   84.39    3.20
   3   4   0   83.88    3.35
   3   4   0   87.38    2.18
   3   4   0   73.62    1.97
  -3  -4  -1  314.85    4.30
   3   4   1  314.34    6.12
   3   4   1  298.61    5.75
   3   4   1  337.86    4.73
   3   4   1  285.73    4.37
  -3  -4  -2  145.19    4.59
  -3  -4  -2  143.81    3.28
  -3  -4  -2    0.00    0.15
   3   4   2  142.13    4.37
   3   4   2  131.50    3.79
   3   4   2  149.34    3.50
   3   4   2  121.24    3.13
  -3  -4  -3  251.36    6.04
  -3  -4  -3  243.64    4.51
  -3  -4  -3  250.26    4.88
  -3  -4  -3  232.35    4.66
   3   4   3  239.34    5.75
   3   4   3  231.48    4.73
   3   4   3  247.64    4.73
  -3  -4  -4  210.73    5.68
  -3  -4  -4  206.87    4.51
  -3  -4  -4  216.99    4.59
  -3  -4  -4  190.56    4.30
   3   4   4  209.05    5.68
   3   4   4  192.38    4.22
   3   4   4  202.79    4.51
   3   4   4  203.81    4.59
  -3  -4  -5  148.69    4.95
  -3  -4  -5  151.67    4.30
  -3  -4  -5  179.42    4.15
  -3  -4  -5  151.09    3.79
   3   4   5  148.61    5.02
   3   4   5  147.60    3.57
  -3  -4  -6  138.35    4.88
  -3  -4  -6  130.12    4.30
  -3  -4  -6  145.92    3.71
  -3  -4  -6  138.42    3.57
   3   4   6  136.38    5.02
   3   4   6  135.58    3.28
  -3  -4  -7  363.78    7.79
  -3  -4  -7  359.71    7.28
  -3  -4  -7  394.07    5.53
  -3  -4  -7  360.21    5.32
   3   4   7  362.04    8.16
  -3  -4  -8  172.57    5.68
  -3  -4  -8  167.47    5.46
  -3  -4  -8  181.89    3.35
  -3  -4  -8  179.05    3.35
   3   4   8  173.88    6.04
  -3  -4  -9  153.86    5.53
  -3  -4  -9  148.03    5.46
   3   4   9  153.06    5.97
  -3  -4 -10    8.01    2.11
  -3  -4 -10    6.63    2.11
   3   4  10    8.66    2.40
  -3  -4 -11    7.14    2.18
  -3  -4 -11    6.70    2.33
   3   4  11    8.16    2.33
  -3  -4 -12    3.79    1.89
  -3  -4 -12    1.89    1.97
   3   4  12    1.46    2.04
  -3  -4 -13    3.35    2.18
   3   4  13    5.90    2.48
  -3  -4 -14   20.61    3.86
  -3  -4 -14   21.92    3.50
   3   4  14   22.35    3.79
  -3  -4 -15   37.72    5.02
   3   4  15   38.37    4.66
  -3  -4 -16   13.25    4.22
   3   4  16   19.08    3.71
  -2  -4  17    9.39    3.28
   2   4 -17    9.39    3.57
  -2  -4  16   10.63    3.20
   2   4 -16   10.78    3.35
  -2  -4  15   27.31    4.08
   2   4 -15   21.92    3.79
  -2  -4  14    4.73    2.40
   2   4 -14    2.26    2.55
   2   4 -14   -1.89    2.11
  -2  -4  13    9.47    2.77
   2   4 -13    8.66    2.77
   2   4 -13    6.63    2.40
  -2  -4  12  190.34    7.06
   2   4 -12  179.12    7.06
   2   4 -12  172.94    6.55
  -2  -4  11   77.77    4.73
   2   4 -11   80.61    4.88
   2   4 -11   71.80    4.44
  -2  -4  10   95.10    4.88
  -2  -4  10  101.72    4.22
   2   4 -10   92.47    4.95
   2   4 -10   89.85    4.66
  -2  -4   9  614.48   10.63
  -2  -4   9  645.43    9.39
   2   4  -9  628.83   10.85
   2   4  -9  588.93   10.27
   2   4  -9  622.64    8.37
  -2  -4   8   37.28    3.13
  -2  -4   8   37.28    2.84
   2   4  -8   32.26    3.13
   2   4  -8   31.60    3.13
   2   4  -8   33.64    2.48
  -2  -4   7  618.78    9.90
  -2  -4   7  633.85    8.88
   2   4  -7  619.87    9.90
   2   4  -7  580.33    9.54
   2   4  -7  605.96    7.50
  -2  -4   6  725.96    5.61
  -2  -4   6  728.51   10.34
  -2  -4   6  736.81    9.39
   2   4  -6  639.39    9.68
   2   4  -6  696.47    7.65
  -2  -4   5   95.68    2.18
  -2  -4   5   92.18    3.86
  -2  -4   5   99.47    3.64
   2   4  -5   81.84    3.71
   2   4  -5   85.92    2.84
  -2  -4   4  478.76    4.73
  -2  -4   4  474.53    7.43
   2   4  -4  441.77    5.02
   2   4  -4  430.85    7.50
   2   4  -4  445.63    5.83
  -2  -4   3  106.75    3.64
   2   4  -3  100.56    2.69
   2   4  -3  105.07    3.79
  -2  -4   2   26.21    2.18
   2   4  -2   23.74    1.67
   2   4  -2   22.35    2.11
  -2  -4   1  158.23    4.30
   2   4  -1  144.68    3.57
   2   4  -1  143.81    4.08
  -2  -4   0  666.62    8.59
   2   4   0  657.44    7.65
   2   4   0  611.13    7.79
   2   4   0  650.45    5.61
   2   4   0  566.50    5.17
  -2  -4  -1  362.69    6.41
   2   4   1  376.82    6.12
   2   4   1  343.03    5.75
   2   4   1  383.81    4.88
   2   4   1  313.03    4.37
  -2  -4  -2  183.20    4.73
  -2  -4  -2  182.91    3.71
  -2  -4  -2  190.99    3.93
  -2  -4  -2  173.66    3.71
   2   4   2  184.22    4.59
   2   4   2  175.34    4.00
   2   4   2  181.82    3.71
   2   4   2  184.51    3.71
  -2  -4  -3  243.27    5.46
  -2  -4  -3  239.92    4.51
  -2  -4  -3  258.20    4.59
   2   4   3  237.81    5.39
   2   4   3  232.57    4.44
   2   4   3  249.39    4.51
   2   4   3  246.84    4.44
  -2  -4  -4   11.14    1.75
  -2  -4  -4   12.45    1.60
  -2  -4  -4   13.47    1.38
  -2  -4  -4    9.76    1.24
   2   4   4   12.38    1.89
   2   4   4   10.19    1.31
   2   4   4   10.78    1.31
  -2  -4  -5   16.97    2.04
  -2  -4  -5   17.11    1.89
  -2  -4  -5   16.31    1.38
  -2  -4  -5   18.20    1.46
   2   4   5   17.55    2.18
   2   4   5   17.48    1.46
  -2  -4  -6   84.39    3.64
  -2  -4  -6   79.66    3.42
  -2  -4  -6   84.10    2.55
  -2  -4  -6   81.41    2.48
   2   4   6   79.88    3.79
   2   4   6   84.17    2.48
  -2  -4  -7   12.89    1.97
  -2  -4  -7   15.95    2.18
  -2  -4  -7   13.76    1.24
  -2  -4  -7   13.83    1.24
   2   4   7   15.22    2.33
   2   4   7   14.64    1.38
  -2  -4  -8  507.74    8.66
  -2  -4  -8  476.21    8.74
   2   4   8  503.59    9.47
  -2  -4  -9  537.59    9.10
  -2  -4  -9  533.30    9.76
   2   4   9  554.48   10.27
  -2  -4 -10   33.71    3.06
  -2  -4 -10   32.77    3.28
   2   4  10   35.90    3.50
  -2  -4 -11   21.33    2.77
  -2  -4 -11   18.86    3.06
   2   4  11   24.54    3.28
  -2  -4 -12    9.10    3.20
  -2  -4 -12    8.81    2.55
   2   4  12    8.59    2.33
  -2  -4 -13   41.43    4.37
  -2  -4 -13   42.67    3.86
   2   4  13   50.68    4.44
  -2  -4 -14   42.82    4.66
   2   4  14   48.79    4.59
  -2  -4 -15   51.33    5.32
   2   4  15   51.26    4.88
  -2  -4 -16   17.11    3.79
   2   4  16   22.50    3.86
  -1  -4  17    1.38    2.55
   1   4 -17    0.87    2.84
  -1  -4  16    6.12    2.77
   1   4 -16    7.21    3.13
  -1  -4  15   26.94    3.93
   1   4 -15   22.65    3.79
  -1  -4  14    8.37    2.77
   1   4 -14    8.16    2.91
  -1  -4  13    8.96    2.69
   1   4 -13    6.48    2.62
   1   4 -13    5.39    2.11
   1   4 -12  197.91    7.14
   1   4 -12  176.79    6.12
   1   4 -11   81.63    4.88
   1   4 -11   79.51    4.37
  -1  -4  10   16.16    2.55
  -1  -4  10   19.59    2.99
   1   4 -10   18.06    2.69
   1   4 -10   15.87    2.48
  -1  -4   9   20.24    1.89
  -1  -4   9   21.19    2.91
   1   4  -9   20.32    2.77
   1   4  -9   20.53    2.62
   1   4  -9   19.00    2.11
  -1  -4   8   27.67    1.75
  -1  -4   8   24.76    2.77
   1   4  -8   31.09    2.99
   1   4  -8   26.65    2.77
   1   4  -8   30.51    2.11
  -1  -4   7  155.02    3.28
  -1  -4   7  160.05    5.10
   1   4  -7  174.61    5.32
   1   4  -7  153.49    4.81
   1   4  -7  165.58    3.64
  -1  -4   6  180.07    3.35
  -1  -4   6  182.91    5.17
  -1  -4   6  188.95    4.73
   1   4  -6  184.22    5.17
   1   4  -6  173.01    4.95
   1   4  -6  182.55    3.57
  -1  -4   5  810.36    6.63
  -1  -4   5  837.88   10.12
  -1  -4   5  862.05    9.54
   1   4  -5  836.06   10.12
   1   4  -5  734.99    9.39
   1   4  -5  793.75    6.77
  -1  -4   4   40.56    1.67
  -1  -4   4   41.65    2.55
  -1  -4   4   42.82    2.40
   1   4  -4   39.10    1.38
   1   4  -4   39.68    2.55
   1   4  -4   39.61    2.48
   1   4  -4   41.58    1.75
  -1  -4   3  601.96    5.75
  -1  -4   3  622.57    8.08
  -1  -4   3  625.11    7.86
   1   4  -3  584.92    5.17
   1   4  -3  554.78    7.65
  -1  -4   2  625.62    6.04
  -1  -4   2  640.92    7.86
   1   4  -2  604.58    5.83
   1   4  -2  572.98    7.57
  -1  -4   1   50.02    2.40
   1   4  -1   42.01    1.89
   1   4  -1   41.29    2.18
   1   4  -1   36.84    1.17
   1   4  -1   36.33    1.09
  -1  -4   0  269.92    5.10
   1   4   0  265.99    4.51
   1   4   0  231.33    4.59
   1   4   0  250.12    3.50
  -1  -4  -1  683.37    8.01
  -1  -4  -1  732.66    6.84
  -1  -4  -1  637.93    6.33
   1   4   1  664.80    7.43
   1   4   1  632.83    7.21
   1   4   1  652.78    6.04
   1   4   1  668.37    6.19
  -1  -4  -2  415.34    6.33
  -1  -4  -2  440.17    5.39
  -1  -4  -2  411.33    5.24
   1   4   2  431.06    6.33
   1   4   2  398.30    5.61
   1   4   2  430.12    5.24
   1   4   2  407.91    5.17
  -1  -4  -3  304.29    5.53
  -1  -4  -3  301.89    5.02
  -1  -4  -3  309.46    4.59
  -1  -4  -3  294.17    4.44
   1   4   3  308.08    5.68
   1   4   3  316.60    4.81
   1   4   3  303.20    4.66
  -1  -4  -4 1156.95   10.78
  -1  -4  -4 1133.07   10.27
  -1  -4  -4 1189.43    8.81
  -1  -4  -4 1082.39    8.37
   1   4   4 1145.16   11.29
   1   4   4 1219.43    9.61
   1   4   4 1182.15    9.39
  -1  -4  -5  408.86    6.63
  -1  -4  -5  396.77    6.55
  -1  -4  -5  425.82    5.10
  -1  -4  -5  432.16    5.10
   1   4   5  420.21    7.28
  -1  -4  -6   15.15    1.89
  -1  -4  -6   19.95    2.33
  -1  -4  -6   21.19    1.31
  -1  -4  -6   17.62    1.24
   1   4   6   19.37    2.11
  -1  -4  -7   78.13    3.28
  -1  -4  -7   80.90    3.64
   1   4   7   84.76    3.86
  -1  -4  -8  169.88    4.73
  -1  -4  -8  158.74    5.17
   1   4   8  169.22    5.39
  -1  -4  -9  814.29   10.19
  -1  -4  -9  800.09   11.72
   1   4   9  836.13   12.01
  -1  -4 -10  126.04    4.44
  -1  -4 -10  114.46    5.10
   1   4  10  130.27    5.32
  -1  -4 -11  158.30    4.95
  -1  -4 -11  155.02    6.12
   1   4  11  155.39    5.97
  -1  -4 -12   14.71    2.84
  -1  -4 -12   12.09    2.26
   1   4  12   15.95    2.77
  -1  -4 -13   17.04    3.20
   1   4  13   25.78    3.50
  -1  -4 -14   33.13    4.15
   1   4  14   36.48    4.08
  -1  -4 -15   62.33    5.39
   1   4  15   71.14    5.24
  -1  -4 -16   14.13    3.50
   1   4  16   18.71    3.42
   0   4 -17    1.53    2.91
   0   4 -16    9.47    3.13
   0   4 -15   11.00    3.06
   0   4 -14    4.59    2.55
   0   4 -13    1.24    2.18
   0   4 -12   23.23    3.35
   0   4 -12   20.17    2.69
   0   4 -11    8.81    2.33
   0   4 -11    9.61    2.11
   0  -4  10  198.42    4.81
   0   4 -10  212.26    6.55
   0   4 -10  200.24    5.68
   0  -4   9  131.65    3.50
   0  -4   9  121.38    3.64
   0   4  -9  133.62    5.10
   0   4  -9  117.09    4.37
   0  -4   8  298.03    4.73
   0  -4   8  282.16    5.02
   0   4  -8  301.02    6.92
   0   4  -8  292.93    6.26
   0   4  -8  297.52    4.73
   0  -4   7  329.41    4.51
   0  -4   7  311.50    5.02
   0   4  -7  335.09    6.84
   0   4  -7  301.09    6.12
   0   4  -7  331.96    4.51
   0  -4   6  878.51    7.86
   0   4  -6  935.52   10.78
   0   4  -6  868.39    9.83
   0   4  -6  989.33    6.92
   0  -4   5 1465.69    9.68
   0   4  -5 1527.65   13.03
   0   4  -5 1411.66   12.16
   0   4  -5 1531.95    7.79
   0  -4   4  445.19    5.24
   0  -4   4  461.65    6.92
   0   4  -4  472.93    6.99
   0   4  -4  433.32    6.55
   0   4  -4  443.51    3.86
   0  -4   3  457.20    5.24
   0  -4   3  473.88    6.63
   0   4  -3  471.33    3.86
   0   4  -3  439.73    6.41
   0   4  -3  418.32    6.26
   0   4  -3  437.18    3.71
   0  -4   2  355.12    4.66
   0  -4   2  367.93    5.61
   0  -4   2  358.54    5.61
   0   4  -2  353.52    3.93
   0   4  -2  338.44    5.46
   0  -4   1  715.70    6.70
   0  -4   1  728.29    7.79
   0   4  -1  704.99    6.04
   0   4  -1  676.45    4.59
   0   4  -1  639.02    4.44
   0  -4   0  509.63    5.90
   0  -4   0  508.68    6.41
   0   4   0  501.84    5.61
   0   4   0  486.62    4.66
   0   4   0  462.96    4.51
   0  -4  -1  689.99    7.43
   0  -4  -1  692.98    6.19
   0   4   1  690.72    7.06
   0   4   1  789.39    6.41
   0   4   1  681.69    5.97
   0  -4  -2  803.66    8.01
   0  -4  -2  824.34    6.84
   0  -4  -2  743.80    6.48
   0   4   2  777.52    7.94
   0   4   2  813.41    6.84
   0   4   2  788.88    6.77
   0  -4  -3 1041.98    9.10
   0  -4  -3 1057.05    7.65
   0  -4  -3 1022.47    7.57
   0   4   3 1055.89    9.83
   0   4   3 1068.12    8.16
   0   4   3 1035.79    8.01
   0  -4  -4  184.80    4.00
   0  -4  -4  175.34    4.15
   0  -4  -4  207.09    3.35
   0  -4  -4  174.03    3.06
   0   4   4  174.83    4.37
   0  -4  -5  109.08    3.20
   0  -4  -5  106.89    3.57
   0  -4  -5  115.99    2.33
   0  -4  -5  106.46    2.26
   0   4   5  112.21    3.79
   0  -4  -6  100.48    3.20
   0  -4  -6  101.29    3.71
   0   4   6   99.68    3.71
   0  -4  -7  365.82    5.90
   0  -4  -7  382.71    7.28
   0   4   7  383.15    7.28
   0  -4  -8  486.04    6.99
   0  -4  -8  471.48    8.52
   0   4   8  488.95    8.59
   0  -4  -9  255.73    5.32
   0  -4  -9  251.36    6.70
   0   4   9  264.46    6.70
   0  -4 -10   85.56    3.42
   0  -4 -10   82.57    4.44
   0   4  10   94.44    4.59
   0  -4 -11  361.82    8.81
   0  -4 -11  352.71    7.06
   0   4  11  372.59    8.52
   0  -4 -12   35.75    3.86
   0  -4 -12   30.58    3.06
   0   4  12   36.33    3.57
   0  -4 -13   49.73    4.44
   0   4  13   59.20    4.37
   0  -4 -14  111.63    6.19
   0   4  14  118.18    5.75
   0  -4 -15  119.20    6.77
   0   4  15  120.95    6.04
   0  -4 -16    9.10    3.20
   0   4  16    9.17    2.77
  -1   4 -17   -2.99    2.40
  -1   4 -16    8.52    3.13
  -1   4 -15   54.68    5.17
  -1   4 -14    1.02    2.26
  -1   4 -13   50.68    4.44
   1  -4  12  246.62    6.26
  -1   4 -12  269.85    7.94
   1  -4  11   65.61    3.35
  -1   4 -11   69.47    4.37
  -1   4 -11   62.40    3.50
   1  -4  10   55.99    2.99
  -1   4 -10   60.44    3.93
  -1   4 -10   56.50    3.20
   1  -4   9  431.50    6.99
  -1   4  -9  472.35    8.88
  -1   4  -9  453.20    7.50
   1  -4   8  214.22    4.73
  -1   4  -8  235.05    6.04
  -1   4  -8  218.30    5.10
   1  -4   7   87.45    2.99
  -1   4  -7   91.31    3.79
  -1   4  -7   86.07    3.28
   1  -4   6  579.17    6.92
  -1   4  -6  621.18    8.59
  -1   4  -6  598.83    7.72
   1  -4   5  431.35    5.75
  -1   4  -5  451.74    6.99
  -1   4  -5  432.16    6.41
   1  -4   4 1322.46    9.54
  -1   4  -4 1388.00   11.36
  -1   4  -4 1347.00   10.78
   1  -4   3  852.08    7.50
  -1   4  -3  927.01    4.88
  -1   4  -3  888.12    8.59
   1  -4   2  623.22    6.33
   1  -4   2  657.37    6.99
  -1   4  -2  633.12    6.84
  -1   4  -2  659.34    4.88
  -1   4  -2  646.89    6.92
   1  -4   1  805.26    7.21
   1  -4   1  822.37    7.28
  -1   4  -1  788.88    7.57
  -1   4  -1  811.96    6.12
  -1   4  -1  802.27    7.21
  -1   4  -1  858.85    5.46
  -1   4  -1  721.16    5.02
   1  -4   0  302.55    4.51
   1  -4   0  319.44    4.81
   1  -4   0  362.04    4.22
   1  -4   0  318.71    3.93
  -1   4   0  310.99    4.81
  -1   4   0  326.87    4.30
  -1   4   0  322.79    3.79
  -1   4   0  277.72    3.50
   1  -4  -1  399.68    5.39
   1  -4  -1  415.92    5.32
   1  -4  -1  416.06    4.59
   1  -4  -1  401.86    4.51
  -1   4   1  395.68    5.39
  -1   4   1  405.36    5.17
  -1   4   1  422.40    4.59
  -1   4   1  406.45    4.44
   1  -4  -2 1540.18   10.92
   1  -4  -2 1546.15   10.05
   1  -4  -2 1771.95    9.32
   1  -4  -2 1496.56    8.52
  -1   4   2 1522.41   10.49
  -1   4   2 1553.07   10.70
  -1   4   2 1827.43    9.76
  -1   4   2 1527.95    8.96
   1  -4  -3 1498.75    9.83
   1  -4  -3 1704.30    8.88
   1  -4  -3 1333.68    7.79
  -1   4   3 1404.01   10.12
  -1   4   3 1459.79   11.07
   1  -4  -4  110.46    2.84
   1  -4  -4  107.40    3.35
   1  -4  -4  111.33    2.18
   1  -4  -4  106.38    2.11
  -1   4   4  105.80    2.91
  -1   4   4  103.98    3.35
   1  -4  -5  145.34    3.28
   1  -4  -5  137.84    3.93
  -1   4   5  137.11    3.35
  -1   4   5  141.70    4.00
   1  -4  -6   59.71    2.26
   1  -4  -6   62.98    2.99
  -1   4   6   62.77    2.40
  -1   4   6   63.42    2.99
   1  -4  -7  164.63    3.57
   1  -4  -7  162.01    4.81
  -1   4   7  175.77    4.88
   1  -4  -8  517.35    6.33
   1  -4  -8  544.44    9.03
  -1   4   8  551.86    8.81
   1  -4  -9  123.64    3.35
   1  -4  -9  125.53    4.88
   1  -4  -9  125.10    3.64
  -1   4   9  126.99    4.66
   1  -4 -10  127.13    5.24
   1  -4 -10  120.07    3.86
  -1   4  10  135.65    5.10
   1  -4 -11  813.12   12.89
   1  -4 -11  827.47   10.05
  -1   4  11  897.73   12.74
   1  -4 -12   70.63    4.66
  -1   4  12   83.01    4.59
   1  -4 -13   23.23    3.57
  -1   4  13   25.85    3.20
   1  -4 -14    8.30    2.69
  -1   4  14    7.65    2.40
   1  -4 -15   12.60    3.20
  -1   4  15   13.83    2.84
   1  -4 -16   13.03    3.50
   1  -4 -17   29.93    4.81
  -2   4 -17    8.74    3.35
  -2   4 -16   17.62    3.79
  -2   4 -15   19.08    3.57
   2  -4  14   29.78    3.20
  -2   4 -14   30.51    4.00
   2  -4  13   43.98    3.42
  -2   4 -13   49.30    4.51
   2  -4  12  155.24    5.39
  -2   4 -12  172.43    6.55
   2  -4  11   13.40    2.11
  -2   4 -11   12.23    2.55
  -2   4 -11   13.03    1.97
   2  -4  10   77.11    3.57
  -2   4 -10   79.08    4.37
  -2   4 -10   78.42    3.35
   2  -4   9   24.90    2.26
  -2   4  -9   28.62    2.99
  -2   4  -9   26.94    2.26
   2  -4   8  355.77    6.48
  -2   4  -8  383.01    7.57
  -2   4  -8  367.57    6.12
   2  -4   7  157.06    4.22
  -2   4  -7  167.33    4.88
  -2   4  -7  169.66    4.15
   2  -4   6    3.13    1.02
  -2   4  -6    2.48    0.87
  -2   4  -6    1.31    1.09
  -2   4  -6    2.84    1.02
   2  -4   5  324.24    5.32
  -2   4  -5  359.20    5.02
  -2   4  -5  340.63    6.04
   2  -4   4  449.49    5.97
  -2   4  -4  496.01    5.90
  -2   4  -4  475.04    6.63
   2  -4   3   84.47    2.69
  -2   4  -3   90.65    2.69
  -2   4  -3   80.97    2.69
   2  -4   2  465.07    5.75
  -2   4  -2  479.19    5.75
  -2   4  -2  483.42    5.68
  -2   4  -2  486.69    3.79
  -2   4  -2  426.04    3.57
   2  -4   1 1207.85    9.03
  -2   4  -1 1115.96    8.74
  -2   4  -1 1241.64    8.30
  -2   4  -1 1336.37    7.21
  -2   4  -1 1101.32    8.52
   2  -4   0 1908.26   11.36
   2  -4   0 1969.57    9.47
   2  -4   0 1857.94    7.86
   2  -4   0 1882.34   14.85
  -2   4   0 1945.54   11.58
  -2   4   0 1885.03    7.86
  -2   4   0 1936.95    9.39
  -2   4   0 1965.85   11.21
  -2   4   0 1751.78   14.13
   2  -4  -1 1425.42   10.05
   2  -4  -1 1372.05    7.94
   2  -4  -1 1434.52    8.16
   2  -4  -1 1459.28    8.16
  -2   4   1 1446.83   10.05
  -2   4   1 1382.46    7.94
  -2   4   1 1533.99    8.59
   2  -4  -2  629.48    6.92
   2  -4  -2  637.28    5.97
   2  -4  -2  596.64    5.97
   2  -4  -2  627.37    5.24
   2  -4  -2  618.71    5.17
  -2   4   2  634.22    6.70
  -2   4   2  619.65    6.04
   2  -4  -3 3094.63   26.87
   2  -4  -3 3011.11   16.60
   2  -4  -3 2879.68   14.42
   2  -4  -3 3013.29   15.44
   2  -4  -3 2867.88   18.42
  -2   4   3 3035.50   21.04
  -2   4   3 2914.92   14.42
   2  -4  -4 1203.77    7.79
   2  -4  -4 1116.98    5.02
   2  -4  -4 1099.58    4.95
  -2   4   4 1183.02    9.17
  -2   4   4 1152.66    9.98
  -2   4   4 1149.67   10.27
   2  -4  -5  667.42    5.83
   2  -4  -5  655.41    8.30
  -2   4   5  399.17    5.46
  -2   4   5  644.56    8.08
  -2   4   5  658.32    8.23
   2  -4  -6   25.85    1.46
   2  -4  -6   25.19    2.26
  -2   4   6   27.38    1.82
  -2   4   6   23.52    2.11
  -2   4   6   26.36    2.18
   2  -4  -7  326.36    4.15
   2  -4  -7  336.55    6.77
   2  -4  -7  325.19    4.30
  -2   4   7  349.95    5.17
  -2   4   7  333.64    6.70
  -2   4   7  349.95    6.70
   2  -4  -8  194.63    3.35
   2  -4  -8  195.14    5.53
   2  -4  -8  190.99    3.64
  -2   4   8  206.72    4.00
  -2   4   8  203.95    5.39
   2  -4  -9   83.88    4.15
   2  -4  -9   88.62    2.84
  -2   4   9   98.08    2.84
  -2   4   9   92.91    4.08
   2  -4 -10  129.46    5.24
   2  -4 -10  129.46    3.71
  -2   4  10  145.41    5.10
   2  -4 -11   87.09    4.81
  -2   4  11   93.20    4.51
   2  -4 -12   69.54    4.59
  -2   4  12   77.62    4.37
   2  -4 -13   10.56    2.77
  -2   4  13   12.01    2.48
   2  -4 -14   35.97    4.44
  -2   4  14   39.98    3.86
   2  -4 -15    3.57    2.48
  -2   4  15    3.86    2.11
   2  -4 -16   20.02    3.93
   2  -4 -17    2.26    2.69
  -3   4 -17   11.80    3.57
  -3   4 -16    1.82    2.69
   3  -4  15   26.14    3.50
  -3   4 -15   30.22    4.22
   3  -4  14   50.75    4.00
  -3   4 -14   56.21    4.95
   3  -4  13   13.47    2.48
  -3   4 -13   15.95    3.06
   3  -4  12   44.78    3.50
  -3   4 -12   46.89    4.22
   3  -4  11   39.03    3.20
  -3   4 -11   38.66    3.79
   3  -4  10    6.70    1.75
  -3   4 -10    6.48    2.04
  -3   4 -10    8.01    1.53
   3  -4   9  407.03    7.65
  -3   4  -9  430.26    8.52
  -3   4  -9  432.16    6.41
   3  -4   8   50.75    2.91
  -3   4  -8   59.20    2.26
  -3   4  -8   52.72    3.35
  -3   4  -8   57.67    2.55
   3  -4   7  142.43    4.22
  -3   4  -7  158.15    3.35
  -3   4  -7  149.34    4.66
  -3   4  -7  151.45    3.71
   3  -4   6  113.96    3.64
  -3   4  -6  130.92    3.13
  -3   4  -6  122.26    4.00
   3  -4   5   26.43    1.97
  -3   4  -5   29.34    1.75
  -3   4  -5   28.47    2.11
   3  -4   4 1013.22    9.47
  -3   4  -4 1116.40    8.81
  -3   4  -4 1061.42    9.83
   3  -4   3   46.02    2.18
  -3   4  -3   55.56    2.26
  -3   4  -3   49.88    2.26
  -3   4  -3   59.71    1.46
  -3   4  -3   47.98    1.31
   3  -4   2  129.68    3.28
   3  -4   2  132.45    1.89
  -3   4  -2  139.22    3.28
  -3   4  -2  135.44    3.13
  -3   4  -2  120.80    2.26
   3  -4   1  483.56    6.04
   3  -4   1  499.80    4.00
   3  -4   1  516.18    5.10
   3  -4   1  454.44    4.73
  -3   4  -1  515.16    6.12
  -3   4  -1  476.86    5.10
  -3   4  -1  532.79    4.95
  -3   4  -1  449.92    4.51
   3  -4   0  329.63    4.95
   3  -4   0  337.13    3.79
   3  -4   0  355.63    4.15
   3  -4   0  334.07    4.00
  -3   4   0  340.34    5.02
  -3   4   0  327.67    3.71
  -3   4   0  440.46    4.66
  -3   4   0  305.75    3.86
   3  -4  -1 1244.11    9.54
   3  -4  -1 1271.78    8.16
   3  -4  -1 1251.54    7.50
  -3   4   1 1258.17    9.61
  -3   4   1 1264.14    6.04
  -3   4   1 1298.43    8.01
  -3   4   1 1131.76    7.43
   3  -4  -2  325.41    5.02
   3  -4  -2  317.25    4.59
   3  -4  -2  294.10    3.42
   3  -4  -2  312.45    3.57
  -3   4   2  318.86    4.95
   3  -4  -3 3214.41   26.80
   3  -4  -3 3347.15   21.92
   3  -4  -3 3094.26   12.16
   3  -4  -3 3078.54   16.46
  -3   4   3 3193.37   18.86
   3  -4  -4  634.36    7.43
   3  -4  -4  652.20    5.10
   3  -4  -4  652.86    7.72
  -3   4   4  627.95    6.99
   3  -4  -5 3497.80   18.28
   3  -4  -5 3329.24   18.49
   3  -4  -5 3504.36   18.86
  -3   4   5 3604.84   22.94
  -3   4   5 3385.60   23.30
   3  -4  -6 1434.60    6.70
   3  -4  -6 1431.90   12.89
   3  -4  -6 1486.66   13.18
  -3   4   6 1542.14   11.00
  -3   4   6 1459.86   13.03
   3  -4  -7  535.99    3.93
   3  -4  -7  581.35    8.74
   3  -4  -7  569.92    4.73
   3  -4  -7  573.71    8.81
  -3   4   7  618.20    7.06
  -3   4   7  579.31    8.81
   3  -4  -8  247.42    6.19
   3  -4  -8  240.58    3.57
   3  -4  -8  256.02    6.33
  -3   4   8  270.94    4.73
  -3   4   8  266.65    6.48
  -3   4   8  259.51    6.12
   3  -4  -9  161.65    5.39
   3  -4  -9  150.65    4.81
  -3   4   9  175.05    3.86
  -3   4   9  172.06    5.53
  -3   4   9  164.78    5.17
   3  -4 -10  107.18    4.88
  -3   4  10  102.74    4.73
  -3   4  10  106.46    4.51
   3  -4 -11   33.35    3.57
  -3   4  11   36.04    3.20
   3  -4 -12  100.99    5.32
  -3   4  12  109.30    4.95
   3  -4 -13   28.69    3.86
  -3   4  13   30.87    3.42
   3  -4 -14   30.29    4.00
  -3   4  14   31.46    3.57
   3  -4 -15   17.33    3.64
  -3   4  15   18.71    3.06
   3  -4 -16   16.89    3.71
   3  -4 -17    2.69    2.77
   4  -4  17    2.04    2.26
  -4   4 -17    9.25    3.50
   4  -4  16    7.14    2.55
  -4   4 -16    7.50    3.13
   4  -4  15  115.63    5.97
  -4   4 -15  119.20    6.70
   4  -4  14  109.44    5.61
  -4   4 -14  104.93    6.04
   4  -4  13   51.55    4.00
  -4   4 -13   53.52    4.59
   4  -4  12   28.83    3.28
  -4   4 -12   34.51    3.86
   4  -4  11  328.39    8.01
  -4   4 -11  357.16    8.88
   4  -4  10   86.58    4.22
  -4   4 -10   96.92    4.81
   4  -4   9  253.54    4.51
   4  -4   9  241.75    6.33
  -4   4  -9  250.48    6.77
  -4   4  -9  263.08    4.73
   4  -4   8  450.80    5.75
   4  -4   8  433.47    7.94
  -4   4  -8  489.75    5.83
  -4   4  -8  454.66    8.45
  -4   4  -8  467.03    6.12
   4  -4   7  346.45    6.84
  -4   4  -7  400.19    5.46
  -4   4  -7  354.03    7.14
   4  -4   6   91.89    3.50
  -4   4  -6  106.24    2.99
  -4   4  -6   93.86    3.71
   4  -4   5   95.39    3.42
  -4   4  -5  108.71    3.06
  -4   4  -5  100.99    3.57
   4  -4   4  148.69    4.00
  -4   4  -4  166.82    3.71
  -4   4  -4  146.36    3.93
  -4   4  -4  169.37    2.48
   4  -4   3  921.76    9.25
  -4   4  -3 1029.16    8.96
  -4   4  -3  911.42    8.66
  -4   4  -3 1021.45    6.77
  -4   4  -3  914.99    6.41
   4  -4   2  755.24    8.08
   4  -4   2  742.71    5.83
   4  -4   2  779.34    6.70
   4  -4   2  717.74    6.41
  -4   4  -2  720.36    7.06
  -4   4  -2  785.31    6.33
  -4   4  -2  708.20    6.04
   4  -4   1  663.42    7.35
   4  -4   1  641.21    5.68
   4  -4   1  713.51    6.26
   4  -4   1  634.44    5.90
  -4   4  -1  696.91    7.50
  -4   4  -1  646.16    6.12
  -4   4  -1  718.97    6.26
  -4   4  -1  642.44    5.90
   4  -4   0  461.21    6.04
   4  -4   0  449.78    5.10
   4  -4   0  474.46    4.95
   4  -4   0  431.21    4.73
  -4   4   0  472.64    6.26
  -4   4   0  438.42    4.44
  -4   4   0  468.78    5.10
   4  -4  -1  718.75    7.43
   4  -4  -1  694.94    6.70
   4  -4  -1  721.74    5.75
   4  -4  -1  715.92    5.75
  -4   4   1  705.28    7.65
  -4   4   1  676.16    4.59
   4  -4  -2  362.40    5.39
   4  -4  -2  350.68    5.24
   4  -4  -2  359.63    3.64
   4  -4  -2  353.66    3.64
  -4   4   2  350.31    5.46
   4  -4  -3  464.70    6.19
   4  -4  -3  451.52    6.33
  -4   4   3  456.99    6.33
   4  -4  -4  487.50    6.48
   4  -4  -4  489.02    6.99
  -4   4   4  471.04    6.48
   4  -4  -5 1574.69   13.11
  -4   4   5 1577.90   11.72
   4  -4  -6  923.29   10.34
   4  -4  -6  964.43   10.92
  -4   4   6  939.38    9.17
   4  -4  -7  319.29    6.55
   4  -4  -7  343.90    7.06
  -4   4   7  340.55    5.68
   4  -4  -8  287.55    6.63
   4  -4  -8  300.80    6.99
  -4   4   8  296.28    5.32
  -4   4   8  281.57    6.70
   4  -4  -9  137.04    5.10
   4  -4  -9  133.62    5.17
  -4   4   9  136.09    3.79
  -4   4   9  127.35    4.95
   4  -4 -10  194.63    6.26
   4  -4 -10  211.89    6.70
  -4   4  10  202.50    6.41
  -4   4  10  219.46    6.19
   4  -4 -11    5.68    2.11
   4  -4 -11    9.03    2.55
  -4   4  11    7.94    2.33
  -4   4  11    8.08    1.89
   4  -4 -12   23.23    3.28
  -4   4  12   31.31    4.00
  -4   4  12   25.41    3.13
   4  -4 -13    0.51    1.97
  -4   4  13    1.24    2.18
  -4   4  13   -0.80    1.53
   4  -4 -14    7.94    2.77
  -4   4  14    5.17    2.11
   4  -4 -15   13.33    3.28
   4  -4 -16   10.41    3.35
   4  -4 -17    2.33    2.77
   5  -4  17    5.10    2.62
   5  -4  16   20.46    3.64
  -5   4 -16   28.62    4.44
   5  -4  15   34.00    4.08
  -5   4 -15   37.65    4.81
   5  -4  14   28.18    3.71
  -5   4 -14   29.64    4.22
   5  -4  13    1.53    1.75
  -5   4 -13    1.09    2.11
   5  -4  12   60.07    4.30
  -5   4 -12   54.83    4.59
   5  -4  11   97.35    4.95
  -5   4 -11  107.04    5.46
   5  -4  10  256.67    7.14
  -5   4 -10  275.68    7.65
   5  -4   9  164.78    4.22
   5  -4   9  170.10    5.68
  -5   4  -9  167.04    5.75
   5  -4   8   98.88    3.28
   5  -4   8   96.26    4.22
  -5   4  -8  109.95    3.20
  -5   4  -8   97.86    4.37
   5  -4   7   51.48    2.48
   5  -4   7   50.10    3.06
  -5   4  -7   63.93    2.62
  -5   4  -7   51.84    3.28
   5  -4   6  548.59    8.59
  -5   4  -6  633.42    7.43
  -5   4  -6  582.59    8.81
   5  -4   5  150.29    4.44
  -5   4  -5  174.61    4.08
  -5   4  -5  157.86    4.51
  -5   4  -5  162.89    2.62
  -5   4  -5  178.54    2.69
   5  -4   4  231.55    5.24
  -5   4  -4  250.34    4.81
  -5   4  -4  226.82    5.02
  -5   4  -4  267.96    3.86
  -5   4  -4  239.12    3.57
   5  -4   3  112.21    3.64
   5  -4   3  156.99    4.44
   5  -4   3  110.02    2.99
  -5   4  -3  120.73    3.50
  -5   4  -3  110.68    3.35
  -5   4  -3  121.96    2.84
  -5   4  -3  117.09    2.69
   5  -4   2  312.89    5.61
   5  -4   2  271.38    4.30
   5  -4   2  291.33    4.44
  -5   4  -2  324.75    5.53
  -5   4  -2  305.97    4.95
  -5   4  -2  348.13    4.73
  -5   4  -2  306.62    4.44
   5  -4   1 1607.02   12.01
   5  -4   1 1576.66   10.41
   5  -4   1 1716.90   10.34
  -5   4  -1 1673.65   12.38
  -5   4  -1 1591.22   10.19
  -5   4  -1 1701.68   10.34
  -5   4  -1 1551.90    9.90
   5  -4   0 1846.66   12.60
   5  -4   0 1810.32   11.50
   5  -4   0 1884.23   10.27
   5  -4   0 1720.90    9.83
  -5   4   0 1895.73   13.25
  -5   4   0 1730.88    9.61
  -5   4   0 2005.17   11.21
   5  -4  -1 1400.52   10.78
   5  -4  -1 1360.54   10.49
   5  -4  -1 1397.53    8.16
   5  -4  -1 1438.46    8.30
  -5   4   1 1371.32   11.43
   5  -4  -2  177.30    4.00
   5  -4  -2  174.83    4.15
   5  -4  -2  180.29    2.55
   5  -4  -2  185.17    2.62
  -5   4   2  184.66    4.44
   5  -4  -3 3174.87   16.16
   5  -4  -3 3072.64   17.33
  -5   4   3 3096.59   17.40
   5  -4  -4  396.19    5.90
   5  -4  -4  371.79    6.55
  -5   4   4  363.35    6.12
   5  -4  -5  386.14    5.97
   5  -4  -5  362.76    6.77
  -5   4   5  367.13    6.19
   5  -4  -6   82.06    3.42
   5  -4  -6   86.36    3.79
  -5   4   6   85.70    3.28
   5  -4  -7  186.26    5.17
   5  -4  -7  183.93    5.46
  -5   4   7  184.80    4.66
   5  -4  -8  182.26    5.39
   5  -4  -8  190.70    5.90
  -5   4   8  191.65    4.73
   5  -4  -9  103.03    4.66
   5  -4  -9  105.80    4.88
  -5   4   9  109.37    3.79
   5  -4 -10  359.49    8.23
   5  -4 -10  388.47    9.03
  -5   4  10  367.93    9.47
  -5   4  10  351.33    8.45
   5  -4 -11   12.89    2.69
   5  -4 -11   13.91    2.91
  -5   4  11   14.05    2.77
  -5   4  11   12.74    2.26
   5  -4 -12   36.99    4.08
   5  -4 -12   40.85    4.37
  -5   4  12   36.26    3.86
  -5   4  12   42.38    3.64
   5  -4 -13  111.04    5.83
   5  -4 -13  120.22    6.48
  -5   4  13  116.21    6.04
  -5   4  13  113.66    5.32
   5  -4 -14  134.49    6.70
  -5   4  14  140.17    6.84
  -5   4  14  139.37    5.97
   5  -4 -15   22.50    3.93
  -5   4  15   21.41    3.93
   5  -4 -16    4.66    2.91
   5  -4 -17   15.00    3.64
   6  -4  16   39.68    4.73
  -6   4 -16   45.95    5.46
   6  -4  15   14.13    3.06
  -6   4 -15   17.26    3.79
   6  -4  14   20.90    3.57
  -6   4 -14   17.04    3.57
   6  -4  13   65.53    4.88
  -6   4 -13   67.35    5.39
   6  -4  12    3.93    1.97
  -6   4 -12    0.58    1.97
   6  -4  11  412.93    9.76
  -6   4 -11  428.44   10.19
   6  -4  10  630.21    9.10
   6  -4  10  625.19   11.43
  -6   4 -10  630.58   11.65
   6  -4   9  370.12    6.92
   6  -4   9  362.33    8.45
  -6   4  -9  366.99    8.66
   6  -4   8   62.69    3.06
   6  -4   8   61.16    3.79
  -6   4  -8   71.07    2.99
  -6   4  -8   64.88    3.93
   6  -4   7    1.75    1.09
   6  -4   7    2.33    1.38
  -6   4  -7    2.84    1.24
  -6   4  -7    1.75    1.46
   6  -4   6  264.75    6.41
  -6   4  -6  291.26    5.61
  -6   4  -6  260.31    6.33
  -6   4  -6  294.39    3.71
  -6   4  -6  292.64    3.71
   6  -4   5  173.81    5.10
  -6   4  -5  189.39    4.59
  -6   4  -5  175.41    5.02
  -6   4  -5  191.21    3.50
  -6   4  -5  195.29    3.57
   6  -4   4  107.47    3.93
   6  -4   4  118.69    3.64
   6  -4   4  100.99    3.06
  -6   4  -4  117.01    3.71
  -6   4  -4  107.55    3.79
  -6   4  -4  123.49    3.06
  -6   4  -4  113.30    2.91
   6  -4   3  405.29    6.99
   6  -4   3  433.83    5.90
   6  -4   3  371.43    5.46
  -6   4  -3  421.38    6.77
  -6   4  -3  449.34    5.75
  -6   4  -3  420.29    5.53
   6  -4   2  180.44    4.59
   6  -4   2  191.21    3.93
   6  -4   2  180.94    3.79
  -6   4  -2  186.04    4.66
  -6   4  -2  197.18    3.93
  -6   4  -2  172.21    3.64
   6  -4   1 2402.96   15.51
   6  -4   1 2365.46   14.56
   6  -4   1 2518.15   13.18
   6  -4   1 2173.30   12.23
  -6   4  -1 2431.21   16.16
  -6   4  -1 2424.59   13.40
  -6   4  -1 2177.96   12.67
   6  -4   0  643.83    7.86
   6  -4   0  641.94    7.79
   6  -4   0  635.89    6.26
   6  -4   0  611.94    6.12
  -6   4   0  679.94    8.74
  -6   4   0  685.41   10.27
   6  -4  -1  361.82    5.83
   6  -4  -1  358.32    6.12
   6  -4  -1  375.43    4.44
   6  -4  -1  364.95    4.37
  -6   4   1  362.84    6.48
   6  -4  -2   39.61    2.18
   6  -4  -2   34.51    2.40
   6  -4  -2   36.63    1.24
   6  -4  -2   39.61    1.24
  -6   4   2   41.58    2.69
   6  -4  -3   76.02    2.84
   6  -4  -3   69.54    3.20
  -6   4   3   73.69    3.28
   6  -4  -4  323.15    5.39
   6  -4  -4  309.61    6.41
  -6   4   4  308.23    6.19
   6  -4  -5   38.52    2.26
   6  -4  -5   35.39    2.77
  -6   4   5   39.17    2.69
   6  -4  -6   80.39    3.50
   6  -4  -6   79.08    3.93
  -6   4   6   77.04    3.42
   6  -4  -7   48.64    2.99
  -6   4   7   49.00    2.99
   6  -4  -8   61.38    3.57
   6  -4  -8   63.71    4.00
  -6   4   8   66.19    3.42
   6  -4  -9  159.03    5.46
   6  -4  -9  161.94    6.12
  -6   4   9  156.33    4.88
   6  -4 -10   11.21    2.33
   6  -4 -10   12.89    2.77
  -6   4  10   13.25    2.04
   6  -4 -11  275.46    7.65
   6  -4 -11  303.35    8.74
  -6   4  11  274.80    8.23
   6  -4 -12   73.47    4.88
   6  -4 -12   76.09    5.46
  -6   4  12   76.46    5.17
   6  -4 -13    1.67    2.18
   6  -4 -13    2.99    2.55
  -6   4  13    6.48    2.69
  -6   4  13    0.73    1.75
   6  -4 -14   45.95    4.73
   6  -4 -14   47.40    5.17
  -6   4  14   48.71    4.81
   6  -4 -15  126.26    6.77
  -6   4  15  128.45    7.14
   6  -4 -16    2.18    2.77
  -6   4  16    1.75    2.69
   6  -4 -17   18.06    3.86
   7  -4  16    2.91    2.48
   7  -4  15   11.21    3.13
  -7   4 -15   13.98    3.57
   7  -4  14    4.73    2.40
  -7   4 -14   11.80    3.28
   7  -4  13   24.17    3.64
  -7   4 -13   31.89    4.51
   7  -4  12   58.83    4.73
  -7   4 -12   65.90    5.17
   7  -4  11    2.04    1.89
  -7   4 -11    0.87    2.11
   7  -4  10  207.81    5.97
   7  -4  10  207.09    7.14
  -7   4 -10  211.89    7.35
   7  -4   9   25.12    2.69
   7  -4   9   28.76    3.35
  -7   4  -9   31.97    3.64
   7  -4   8  156.62    5.10
   7  -4   8  161.43    5.90
  -7   4  -8  173.30    4.81
  -7   4  -8  154.37    5.83
   7  -4   7  175.34    5.17
   7  -4   7  181.53    5.97
  -7   4  -7  189.54    5.02
  -7   4  -7  179.20    5.90
  -7   4  -7  206.65    3.20
  -7   4  -7  219.10    3.35
   7  -4   6   13.33    2.11
  -7   4  -6   17.11    2.18
  -7   4  -6   17.04    2.48
  -7   4  -6   16.89    1.46
  -7   4  -6   16.09    1.53
   7  -4   5   17.11    2.33
  -7   4  -5   17.26    2.18
  -7   4  -5   16.67    1.60
  -7   4  -5   20.83    1.67
   7  -4   4    9.83    1.75
  -7   4  -4   11.21    1.82
  -7   4  -4   12.52    1.53
  -7   4  -4   10.85    1.46
   7  -4   3  301.45    6.41
   7  -4   3  324.54    5.53
   7  -4   3  278.44    5.10
  -7   4  -3  311.50    6.41
  -7   4  -3  340.41    5.53
  -7   4  -3  290.97    5.10
   7  -4   2  193.10    5.02
   7  -4   2  195.36    4.22
   7  -4   2  182.40    4.00
  -7   4  -2  195.29    5.17
  -7   4  -2  204.25    4.37
  -7   4  -2  172.72    4.00
   7  -4   1   41.72    2.62
   7  -4   1   44.05    2.77
   7  -4   1   44.42    2.11
   7  -4   1   41.29    1.97
  -7   4  -1   42.01    2.84
  -7   4  -1    0.22    0.22
   7  -4   0 1610.23   13.03
   7  -4   0 1598.50   13.54
   7  -4   0 1654.06   10.41
   7  -4   0 1548.33   10.05
  -7   4   0 1614.45   14.34
   7  -4  -1 1136.49   10.70
   7  -4  -1 1077.66   11.43
   7  -4  -1 1102.20    7.50
   7  -4  -1 1183.09    7.72
  -7   4   1 1135.11   12.16
   7  -4  -2   36.92    2.26
   7  -4  -2   39.10    2.84
  -7   4   2   35.68    2.69
   7  -4  -3  206.87    4.51
   7  -4  -3  189.54    5.32
  -7   4   3  197.84    5.39
   7  -4  -4   27.89    2.04
   7  -4  -4   21.99    2.55
  -7   4   4   23.59    2.55
   7  -4  -5  263.08    5.02
   7  -4  -5  256.16    6.55
  -7   4   5  245.90    6.12
   7  -4  -6  800.82    8.66
   7  -4  -6  766.23    9.61
   7  -4  -6  756.11   11.29
  -7   4   6  738.78   10.34
   7  -4  -7   71.14    3.64
   7  -4  -7   71.50    4.30
  -7   4   7   66.48    3.71
   7  -4  -8   67.14    3.71
   7  -4  -8   72.96    4.44
  -7   4   8   71.29    3.86
   7  -4  -9   29.49    3.20
   7  -4  -9   29.05    3.50
  -7   4   9   30.36    3.06
   7  -4 -10    1.02    1.67
   7  -4 -10    1.60    2.18
  -7   4  10   -0.51    1.46
   7  -4 -11   69.03    4.44
   7  -4 -11   74.93    5.46
   7  -4 -12   -0.95    1.75
   7  -4 -12   -0.36    2.26
  -7   4  12   -0.29    1.97
   7  -4 -13   38.74    4.30
   7  -4 -13   40.05    4.95
  -7   4  13   38.66    4.66
   7  -4 -14   22.21    3.71
   7  -4 -14   22.35    4.30
  -7   4  14   22.79    4.08
   7  -4 -15    3.86    2.77
   7  -4 -15    6.41    3.28
  -7   4  15    6.26    2.99
  -7   4  16   13.18    4.08
   8  -4  15    1.89    2.48
  -8   4 -15    0.87    2.84
   8  -4  14   21.19    3.86
  -8   4 -14   22.28    4.15
   8  -4  13   28.83    4.30
  -8   4 -13   28.54    4.30
   8  -4  12   10.34    2.69
  -8   4 -12    9.61    2.99
   8  -4  11   31.53    3.35
   8  -4  11   33.71    4.00
  -8   4 -11   31.82    4.37
   8  -4  10   69.83    4.22
   8  -4  10   62.84    4.66
  -8   4 -10   61.46    4.81
   8  -4   9   81.48    4.37
   8  -4   9   82.64    4.95
  -8   4  -9   77.77    4.95
   8  -4   8   79.22    4.22
   8  -4   8   80.90    4.66
  -8   4  -8   86.58    3.93
  -8   4  -8   76.31    4.66
   8  -4   7  661.89   10.56
   8  -4   7  644.70   11.29
  -8   4  -7  737.10   10.19
  -8   4  -7  651.40   11.29
  -8   4  -7  750.36    7.43
  -8   4  -7  746.57    7.43
   8  -4   6  288.86    7.43
  -8   4  -6  309.46    6.84
  -8   4  -6  298.90    5.17
  -8   4  -6  315.58    5.39
   8  -4   5  113.81    4.73
  -8   4  -5  122.55    4.59
  -8   4  -5  122.47    3.64
  -8   4  -5  124.88    3.71
   8  -4   4  105.73    4.44
  -8   4  -4  113.45    4.44
  -8   4  -4  113.30    3.57
  -8   4  -4   98.45    3.28
   8  -4   3   66.04    3.57
  -8   4  -3   72.01    3.71
   8  -4   2  335.38    6.92
   8  -4   2  361.16    5.90
   8  -4   2  322.13    5.53
  -8   4  -2  348.49    7.35
   8  -4   1  638.08    9.03
   8  -4   1  627.88    9.39
   8  -4   1  667.06    7.50
   8  -4   1  609.24    7.14
  -8   4  -1  653.37    9.98
   8  -4   0  276.48    5.90
   8  -4   0  270.07    6.33
   8  -4   0  294.83    4.66
   8  -4   0  264.97    4.37
  -8   4   0  278.08    6.70
   8  -4  -1  217.79    5.10
   8  -4  -1  207.81    5.75
   8  -4  -1  208.76    3.35
   8  -4  -1  215.60    3.35
  -8   4   1  219.76    6.04
   8  -4  -2  119.85    3.79
   8  -4  -2  114.17    4.59
  -8   4   2  118.32    4.66
   8  -4  -3   87.96    3.28
   8  -4  -3   79.66    4.08
  -8   4   3   79.73    4.08
   8  -4  -4   18.64    1.89
   8  -4  -4   22.86    2.84
  -8   4   4   19.95    2.62
   8  -4  -5  215.39    4.73
   8  -4  -5  218.08    5.10
   8  -4  -5  205.19    6.33
  -8   4   5  206.94    6.12
   8  -4  -6   63.35    4.51
   8  -4  -6   57.38    3.20
   8  -4  -6   53.01    4.08
  -8   4   6   53.23    3.71
   8  -4  -7   49.00    3.28
   8  -4  -7   54.32    4.22
  -8   4   7   46.82    3.64
   8  -4  -8  584.41    9.32
   8  -4  -8  613.25   11.65
  -8   4   8  588.05   10.19
   8  -4  -9   29.56    3.28
   8  -4  -9   33.28    4.15
  -8   4   9   30.44    3.35
   8  -4 -10   47.69    3.79
   8  -4 -10   58.25    5.02
  -8   4  10   53.08    3.93
   8  -4 -11   11.94    3.28
   8  -4 -12    3.13    2.77
   8  -4 -13   53.96    5.68
  -8   4  13   44.56    4.88
   8  -4 -14   28.91    4.73
  -8   4  14   29.56    4.59
   8  -4 -15    2.33    2.99
  -8   4  15    2.91    2.84
   9  -4  14    0.73    2.33
  -9   4 -14    2.69    2.91
   9  -4  13   10.70    3.13
  -9   4 -13    7.65    3.28
   9  -4  12    6.84    2.62
  -9   4 -12   11.29    3.35
   9  -4  11   32.77    3.86
   9  -4  11   28.91    4.00
  -9   4 -11   34.22    4.51
   9  -4  10   73.62    4.73
   9  -4  10   75.44    5.32
  -9   4 -10   79.00    5.61
   9  -4   9   12.31    2.55
   9  -4   9    9.17    2.62
  -9   4  -9   12.23    2.91
   9  -4   8   23.08    3.06
   9  -4   8   24.10    3.42
  -9   4  -8   26.72    3.06
  -9   4  -8   28.54    3.79
  -9   4  -8   26.87    1.82
  -9   4  -8   25.34    1.89
   9  -4   7  189.83    6.77
  -9   4  -7  215.90    6.26
  -9   4  -7  222.81    4.73
  -9   4  -7  232.13    4.88
   9  -4   6    2.26    1.75
  -9   4  -6    2.33    1.67
  -9   4  -6    2.04    1.09
  -9   4  -6    1.31    1.17
   9  -4   5  362.18    8.37
  -9   4  -5  388.03    8.23
   9  -4   4   41.80    3.42
  -9   4  -4   40.05    3.42
   9  -4   3   57.31    3.64
  -9   4  -3   57.89    3.86
   9  -4   2  304.58    6.99
   9  -4   2  294.17    5.61
   9  -4   2  272.40    5.32
  -9   4  -2  305.68    7.50
   9  -4   1  275.82    6.41
   9  -4   1  271.74    6.99
   9  -4   1  272.84    5.02
   9  -4   1  238.10    4.66
  -9   4  -1  281.87    7.28
   9  -4   0   97.50    4.00
   9  -4   0   96.99    4.51
   9  -4   0  103.11    2.91
   9  -4   0   95.68    2.77
  -9   4   0   97.64    4.73
   9  -4  -1   49.37    2.99
   9  -4  -1   55.34    3.79
   9  -4  -1   57.38    1.82
   9  -4  -1   51.26    1.75
  -9   4   1   49.95    3.93
   9  -4  -2   98.66    3.79
   9  -4  -2   94.44    4.66
  -9   4   2   95.24    4.73
   9  -4  -3  117.74    3.93
   9  -4  -3  108.35    5.02
  -9   4   3  107.77    5.02
   9  -4  -4   70.56    3.20
   9  -4  -4   67.21    4.37
  -9   4   4   69.47    4.30
   9  -4  -5   22.86    3.13
  -9   4   5   20.46    2.91
   9  -4  -6   92.84    5.24
  -9   4   6   89.49    4.88
   9  -4  -7  107.55    5.68
  -9   4   7  100.48    5.10
   9  -4  -8  222.01    7.86
  -9   4   8  214.37    6.99
   9  -4  -9  175.56    7.35
  -9   4   9  164.27    6.33
   9  -4 -10   80.90    5.83
  -9   4  10   74.93    4.73
   9  -4 -11   87.89    6.19
   9  -4 -12    6.84    3.28
   9  -4 -13   69.47    6.33
   9  -4 -14    9.54    3.64
  -9   4  14    7.94    3.13
  10  -4  13   14.27    3.71
 -10   4 -13   22.43    4.51
  10  -4  12   20.17    3.93
 -10   4 -12   17.91    4.00
  10  -4  11   17.99    3.35
  10  -4  11   11.58    3.13
 -10   4 -11   21.48    4.00
  10  -4  10   13.62    3.06
  10  -4  10   18.42    3.79
 -10   4 -10   19.59    3.71
  10  -4   9   32.62    4.44
 -10   4  -9   27.82    4.08
  10  -4   8  107.55    5.90
 -10   4  -8  112.79    3.50
 -10   4  -8  110.10    3.57
  10  -4   7   73.76    4.95
 -10   4  -7   76.53    4.51
 -10   4  -7   77.11    3.28
 -10   4  -7   77.77    3.35
  10  -4   6    1.02    1.82
 -10   4  -6    1.24    1.75
  10  -4   5  127.57    5.61
 -10   4  -5  133.40    5.61
  10  -4   4   59.20    4.15
 -10   4  -4   60.73    4.30
  10  -4   3  144.10    5.53
 -10   4  -3  148.47    5.97
  10  -4   2  156.92    5.53
  10  -4   2  151.24    4.22
  10  -4   2  139.15    4.08
 -10   4  -2  154.73    6.12
  10  -4   1    9.10    2.11
  10  -4   1    8.52    2.26
  10  -4   1    8.30    1.46
  10  -4   1    7.57    1.38
 -10   4  -1    7.86    2.33
  10  -4   0  227.55    6.04
  10  -4   0  205.56    6.77
  10  -4   0  229.22    4.08
  10  -4   0  216.19    4.00
 -10   4   0  241.38    7.43
  10  -4  -1  502.49    8.37
  10  -4  -1  491.50   10.05
 -10   4   1  499.00   10.34
  10  -4  -2  241.38    5.75
  10  -4  -2  239.12    7.43
 -10   4   2  237.01    7.43
  10  -4  -3   89.56    5.17
 -10   4   3   95.17    5.32
  10  -4  -4   17.33    3.13
 -10   4   4   14.64    2.84
  10  -4  -5  261.33    8.16
 -10   4   5  267.59    8.01
  10  -4  -6   67.50    5.10
 -10   4   6   67.35    4.73
  10  -4  -7   31.46    4.22
 -10   4   7   31.67    3.86
  10  -4  -8   23.30    3.79
 -10   4   8   24.10    3.50
  10  -4  -9   48.86    5.24
 -10   4   9   46.24    4.51
  10  -4 -10  109.15    6.70
 -10   4  10  103.03    5.83
  10  -4 -11   67.35    6.12
  10  -4 -12   16.97    4.00
  10  -4 -13    0.66    2.99
  11  -4  11   31.02    4.66
 -11   4 -11   35.46    5.10
  11  -4  10   10.78    3.13
 -11   4 -10   11.65    3.42
  11  -4   9   20.83    3.71
 -11   4  -9   18.13    3.57
 -11   4  -9   24.61    1.97
 -11   4  -9   21.12    2.04
  11  -4   8   13.47    3.06
 -11   4  -8   17.84    2.11
 -11   4  -8   18.57    2.26
  11  -4   7   11.43    2.91
 -11   4  -7    8.30    2.48
  11  -4   6  143.59    6.41
 -11   4  -6  155.90    6.41
  11  -4   5    9.32    2.62
 -11   4  -5    9.25    2.55
  11  -4   4    7.21    2.33
 -11   4  -4    8.01    2.48
  11  -4   3   46.53    3.86
 -11   4  -3   47.69    4.37
  11  -4   2   38.59    3.57
  11  -4   2   38.45    2.55
  11  -4   2   34.08    2.33
 -11   4  -2   37.79    4.30
  11  -4   1    4.66    1.89
  11  -4   1    5.24    2.26
  11  -4   1    5.53    1.31
  11  -4   1    5.02    1.24
 -11   4  -1    6.41    2.48
  11  -4   0    5.39    1.89
  11  -4   0    5.83    2.33
  11  -4   0    5.68    1.02
 -11   4   0    6.41    2.55
  11  -4  -1   60.22    4.73
 -11   4   1   63.28    4.95
  11  -4  -2  204.32    7.50
 -11   4   2  220.63    7.79
  11  -4  -3  375.58    9.83
 -11   4   3  381.19    9.90
  11  -4  -4  191.87    7.50
 -11   4   4  195.65    7.50
  11  -4  -5   74.42    5.53
 -11   4   5   73.47    5.32
  11  -4  -6   33.86    4.51
 -11   4   6   36.92    4.44
  11  -4  -7   19.15    3.79
 -11   4   7   18.64    3.42
  11  -4  -8   32.04    4.44
 -11   4   8   32.55    4.22
  11  -4  -9   46.16    5.61
 -11   4   9   52.06    5.10
  11  -4 -10   22.35    4.37
 -11   4  10   20.90    3.71
  11  -4 -11   32.04    4.95
  11  -4 -12    5.83    4.66
  12  -4  10    1.82    2.55
 -12   4 -10    3.35    2.99
  12  -4   9   51.77    5.32
 -12   4  -9   49.73    5.68
 -12   4  -9   55.05    2.84
 -12   4  -9   50.97    2.84
  12  -4   8   27.60    4.00
  12  -4   7    8.45    2.91
 -12   4  -7    8.45    2.84
  12  -4   6   32.99    4.22
 -12   4  -6   36.26    4.44
  12  -4   5   65.39    4.95
 -12   4  -5   70.99    5.32
  12  -4   4   28.54    3.71
 -12   4  -4   26.07    3.79
  12  -4   3   45.58    4.22
 -12   4  -3   53.96    5.02
  12  -4   2   22.28    3.13
  12  -4   2   27.16    3.93
  12  -4   2   23.52    2.18
  12  -4   2   20.24    2.11
 -12   4  -2   23.81    3.79
  12  -4   1    7.72    2.69
  12  -4   1    2.04    1.02
  12  -4   1    3.50    1.17
 -12   4  -1    3.64    2.55
  12  -4   0   13.25    3.06
 -12   4   0   18.42    3.50
  12  -4  -1   31.60    4.22
 -12   4   1   35.90    4.59
  12  -4  -2  100.48    6.19
 -12   4   2  101.36    6.26
  12  -4  -3   34.22    4.44
 -12   4   3   35.02    4.66
  12  -4  -4   16.24    3.50
 -12   4   4   13.25    3.35
  12  -4  -5   30.29    4.44
 -12   4   5   23.81    3.93
  12  -4  -6   41.50    5.17
 -12   4   6   38.30    4.81
  12  -4  -7   35.61    5.02
 -12   4   7   31.09    4.37
  12  -4  -8    9.98    3.57
 -12   4   8    8.81    3.13
  12  -4  -9  153.13    8.30
 -12   4   9  151.89    7.65
  12  -4 -10   79.15    6.84
 -12   4  10   81.48    6.26
  13  -4   9   58.03    6.70
 -13   4  -9   54.90    3.13
 -13   4  -9   57.38    3.28
  13  -4   8    1.67    2.69
  13  -4   7   15.95    3.64
  13  -4   6   11.29    3.28
 -13   4  -6   10.85    3.20
  13  -4   5    8.81    2.91
 -13   4  -5    9.03    3.06
 -13   4  -4    0.95    2.48
  13  -4   3    2.84    2.69
  13  -4   3    3.42    1.46
  13  -4   3    2.40    1.38
 -13   4  -3    2.48    2.69
  13  -4   2   14.42    3.35
  13  -4   2   15.36    1.89
  13  -4   2   14.34    1.75
 -13   4  -2   17.26    3.71
  13  -4   1   12.09    3.35
 -13   4  -1   19.37    3.93
  13  -4   0   45.73    5.24
 -13   4   0   45.15    5.39
  13  -4  -1   34.44    4.59
 -13   4   1   34.51    4.88
  13  -4  -2   11.80    3.50
 -13   4   2   12.96    3.57
  13  -4  -3   27.96    4.44
 -13   4   3   26.87    4.37
  13  -4  -4   10.56    3.42
 -13   4   4   15.00    3.71
  13  -4  -5    2.84    2.91
 -13   4   5    3.42    2.91
  13  -4  -6   31.02    4.81
 -13   4   6   30.51    4.51
  13  -4  -7    4.73    3.20
 -13   4   7    7.65    3.20
  13  -4  -8   20.53    5.68
 -13   4   8   19.44    4.15
 -13   4   9   11.07    3.64
 -13   4  10    7.86    4.22
  14  -4   7   21.26    4.81
 -14   4  -6    2.04    2.84
 -14   4  -5   24.98    4.30
  14  -4   4   64.30    6.19
 -14   4  -4   57.01    5.97
  14  -4   3    4.95    3.13
  14  -4   3    2.77    1.31
  14  -4   3    4.37    1.38
 -14   4  -3    4.37    3.28
  14  -4   2    7.65    3.28
 -14   4  -2    4.08    3.13
  14  -4   1   28.47    4.66
 -14   4  -1   32.18    4.88
  14  -4   0   57.45    6.04
 -14   4   0   60.29    6.26
  14  -4  -1    6.99    3.57
 -14   4   1    6.04    3.42
  14  -4  -2   23.81    4.59
 -14   4   2   22.21    4.37
  14  -4  -3    4.15    3.35
 -14   4   3    5.90    3.35
  14  -4  -4    3.57    3.20
 -14   4   4    2.04    3.13
 -14   4   5   51.26    7.72
 -10  -5   3  136.60    7.86
  10   5  -3  137.04    7.86
 -10  -5   2    5.90    3.20
 -10  -5   2    6.04    3.35
  10   5  -2    6.04    3.28
  10   5  -2    5.39    3.28
 -10  -5   1    5.17    2.99
 -10  -5   1    4.51    3.28
  10   5  -1    3.64    2.99
  10   5   0    7.57    3.13
  10   5   1    3.79    2.91
  10   5   2    3.64    3.13
   9   5  -6   33.28    8.08
  -9  -5   5   10.41    3.79
   9   5  -5    4.88    3.28
  -9  -5   4   71.29    5.75
   9   5  -4   76.89    6.26
   9   5  -4   68.08    5.90
  -9  -5   3    1.17    2.55
   9   5  -3   -1.38    2.55
   9   5  -3    1.38    2.62
  -9  -5   2   46.02    5.39
   9   5  -2   38.59    4.81
   9   5  -2   41.80    5.10
  -9  -5   1   43.03    5.10
   9   5  -1   40.92    4.81
   9   5  -1   38.52    4.73
  -9  -5   0    3.79    2.77
   9   5   0    2.18    2.55
   9   5   0    0.87    2.33
  -9  -5  -1   14.93    3.64
   9   5   1    9.39    3.06
  -9  -5  -2    0.58    2.48
   9   5   2    1.89    2.48
  -9  -5  -3    2.91    2.77
   9   5   3    3.57    2.77
  -9  -5  -4   72.45    6.26
   9   5   4   64.95    5.83
   9   5   4   61.24    2.99
   9   5   4   55.92    2.69
  -9  -5  -5   17.04    4.00
   9   5   5   16.67    3.79
   8   5  -8    4.88    3.20
   8   5  -7    3.79    2.99
  -8  -5   6   -0.15    2.26
   8   5  -6    1.53    2.69
  -8  -5   5   23.23    3.64
   8   5  -5   21.33    3.86
   8   5  -5   21.70    4.15
  -8  -5   4   24.83    3.79
   8   5  -4   26.29    4.08
   8   5  -4   25.63    3.86
  -8  -5   3   61.67    5.32
   8   5  -3   62.55    5.32
   8   5  -3   63.64    5.24
  -8  -5   2    4.37    2.55
   8   5  -2    3.71    2.33
   8   5  -2    7.06    2.77
  -8  -5   1   55.48    5.10
   8   5  -1   52.43    4.73
   8   5  -1   49.95    4.81
  -8  -5   0    9.98    3.13
   8   5   0   11.43    2.99
   8   5   0   12.89    2.99
  -8  -5  -1   62.04    5.39
   8   5   1   66.48    5.17
   8   5   1   65.75    4.81
  -8  -5  -2   27.01    4.00
   8   5   2   23.01    3.64
  -8  -5  -3    2.99    2.40
   8   5   3    2.48    2.33
   8   5   3    3.86    1.31
   8   5   3    2.62    1.02
  -8  -5  -4   18.13    3.86
   8   5   4   12.60    3.13
   8   5   4   19.37    2.33
   8   5   4   14.42    1.89
  -8  -5  -5   60.36    5.61
   8   5   5   58.18    5.32
  -8  -5  -6   48.86    5.39
   8   5   6   48.06    5.39
  -8  -5  -7   13.40    3.57
   8   5   7   14.27    3.50
  -8  -5  -8   32.11    4.88
   8   5   8   34.37    5.02
  -8  -5 -10   63.57    3.42
  -8  -5 -10   59.64    3.64
   7   5 -10   27.09    4.66
   7   5  -9   26.29    4.30
   7   5  -8   40.63    5.02
  -7  -5   7    8.30    3.28
   7   5  -7    5.39    2.77
  -7  -5   6   46.09    4.44
   7   5  -6   47.77    4.95
  -7  -5   5   13.11    2.91
   7   5  -5   12.45    3.20
   7   5  -5   15.80    2.99
  -7  -5   4   54.76    4.59
   7   5  -4   54.17    4.95
   7   5  -4   48.13    4.37
  -7  -5   3   31.82    4.00
   7   5  -3   25.12    4.73
   7   5  -3   29.93    3.86
   7   5  -3   26.14    3.50
  -7  -5   2   15.36    3.20
   7   5  -2   15.58    2.91
   7   5  -2   12.38    2.99
  -7  -5   1    6.84    2.55
   7   5  -1    6.41    2.26
   7   5  -1    6.84    2.48
  -7  -5   0  107.47    5.90
   7   5   0  108.86    5.61
   7   5   0  100.85    5.32
  -7  -5  -1  129.83    6.41
   7   5   1  117.67    5.90
   7   5   1  123.20    5.61
  -7  -5  -2    9.68    2.84
   7   5   2    8.30    2.62
   7   5   2    8.30    2.26
   7   5   2    6.92    1.31
   7   5   2    7.06    1.17
  -7  -5  -3   48.86    4.66
   7   5   3   44.71    4.51
   7   5   3   49.59    2.77
   7   5   3   43.11    2.48
  -7  -5  -4   42.52    4.59
   7   5   4   42.31    4.51
  -7  -5  -5    1.02    2.18
   7   5   5    1.67    2.18
  -7  -5  -6  102.38    6.33
   7   5   6   94.66    6.12
  -7  -5  -7   63.28    5.46
   7   5   7   67.28    5.61
  -7  -5  -8   21.92    4.00
   7   5   8   21.55    3.93
  -7  -5  -9    8.16    3.06
   7   5   9   11.07    3.28
  -7  -5 -10    2.11    2.48
  -7  -5 -10    2.77    1.24
  -7  -5 -10    2.55    1.24
   7   5  10    1.97    2.55
  -7  -5 -11   10.12    3.35
   6   5 -12   33.35    4.95
   6   5 -11    3.20    3.13
   6   5 -10   58.47    5.83
   6   5  -9   11.50    3.35
   6   5  -8    8.52    2.99
  -6  -5   7   21.12    3.13
   6   5  -7   23.96    3.79
  -6  -5   6   14.27    2.77
   6   5  -6   13.83    3.13
   6   5  -6   15.07    2.91
  -6  -5   5   15.80    2.91
   6   5  -5   20.75    3.42
   6   5  -5   17.77    2.84
  -6  -5   4    9.90    2.55
   6   5  -4    9.25    2.62
   6   5  -4   10.78    2.40
  -6  -5   3   16.24    2.91
   6   5  -3   14.78    2.40
   6   5  -3   13.47    2.77
  -6  -5   2  161.43    6.48
   6   5  -2  157.72    5.75
   6   5  -2  164.78    6.33
  -6  -5   1   10.70    2.62
   6   5  -1   10.05    2.26
   6   5  -1    7.86    2.33
  -6  -5   0   20.83    3.28
   6   5   0   18.35    2.91
   6   5   0   16.60    2.69
  -6  -5  -1   23.37    3.35
   6   5   1   18.42    2.84
   6   5   1   22.28    2.91
   6   5   1   20.83    1.53
   6   5   1   17.69    1.31
  -6  -5  -2  174.83    6.84
   6   5   2  177.96    6.55
   6   5   2  176.14    5.97
   6   5   2  166.53    4.00
   6   5   2  148.54    3.71
  -6  -5  -3   58.25    4.66
   6   5   3   54.68    4.37
   6   5   3   56.50    3.71
   6   5   3   58.32    2.99
   6   5   3   49.44    2.62
  -6  -5  -4   37.28    4.15
   6   5   4   40.78    4.08
  -6  -5  -5    4.44    2.18
   6   5   5    4.15    2.18
  -6  -5  -6   32.77    4.22
   6   5   6   28.11    3.93
  -6  -5  -7    1.17    2.04
   6   5   7    2.26    2.11
  -6  -5  -8   16.09    3.42
   6   5   8   16.82    3.42
  -6  -5  -9    1.46    2.11
  -6  -5  -9    1.24    1.17
  -6  -5  -9    0.73    1.09
   6   5   9    0.80    2.11
  -6  -5 -10   22.65    3.79
  -6  -5 -10   22.86    1.89
  -6  -5 -10   22.57    1.89
   6   5  10   21.92    3.86
  -6  -5 -11    5.32    2.69
   6   5  11    1.89    2.40
  -6  -5 -12   10.56    3.28
   6   5  12    9.47    3.42
  -6  -5 -13   43.47    5.17
   5   5 -14   17.40    4.95
   5   5 -13   53.74    5.83
   5   5 -12    8.30    3.20
   5   5 -11   11.72    3.42
   5   5 -10   11.07    3.20
   5   5  -9    5.68    2.69
  -5  -5   8   14.49    2.69
   5   5  -8   14.05    3.13
  -5  -5   7   35.10    3.64
   5   5  -7   30.22    3.86
  -5  -5   6   51.41    4.00
   5   5  -6   51.12    4.44
   5   5  -6   50.53    3.64
  -5  -5   5    7.72    2.18
   5   5  -5    2.77    1.97
   5   5  -5    4.59    1.82
  -5  -5   4   12.52    2.55
   5   5  -4   11.50    2.11
   5   5  -4    9.47    2.40
   5   5  -4   13.18    2.26
  -5  -5   3   73.25    4.44
   5   5  -3   68.81    3.71
   5   5  -3   66.33    4.22
  -5  -5   2  210.94    6.70
   5   5  -2  212.33    5.97
   5   5  -2  198.71    6.48
  -5  -5   1   80.31    4.59
   5   5  -1   73.91    4.00
   5   5  -1   67.50    4.08
  -5  -5   0   76.60    4.44
   5   5   0   72.74    4.08
   5   5   0   73.03    4.15
  -5  -5  -1  145.99    5.90
   5   5   1  145.34    5.53
   5   5   1  140.61    5.24
   5   5   1  144.61    3.35
   5   5   1  126.84    3.06
  -5  -5  -2   22.28    3.13
   5   5   2   18.42    2.69
   5   5   2   21.48    2.62
   5   5   2   24.90    2.11
   5   5   2   19.73    1.75
  -5  -5  -3   51.70    4.15
   5   5   3   58.98    4.15
   5   5   3   54.98    3.42
   5   5   3   57.89    2.91
   5   5   3   50.02    2.62
  -5  -5  -4  100.78    5.32
   5   5   4   87.38    4.81
   5   5   4   92.11    3.93
  -5  -5  -5  200.31    7.06
   5   5   5  194.27    6.92
  -5  -5  -6    1.38    1.89
   5   5   6    2.69    1.82
  -5  -5  -7   84.17    5.24
   5   5   7   83.08    5.24
  -5  -5  -8   68.96    4.95
  -5  -5  -8   73.91    3.28
  -5  -5  -8   67.57    3.13
   5   5   8   66.55    5.02
  -5  -5  -9   81.55    5.24
  -5  -5  -9   83.88    3.20
  -5  -5  -9   80.90    3.06
   5   5   9   78.79    5.46
  -5  -5 -10   12.16    2.91
   5   5  10   10.70    2.99
  -5  -5 -11    0.80    2.04
   5   5  11    3.28    2.40
  -5  -5 -12    5.10    2.48
  -5  -5 -12    2.40    2.77
   5   5  12    2.91    2.55
  -5  -5 -13   10.56    2.91
  -5  -5 -13    9.90    3.42
   5   5  13   11.07    3.42
  -5  -5 -14   16.89    4.88
   4   5 -15  128.81    7.65
   4   5 -14    5.32    3.13
   4   5 -13    9.90    3.20
   4   5 -12    7.43    2.99
   4   5 -11   36.99    4.51
   4   5 -10   68.23    5.39
  -4  -5   9   13.33    2.55
   4   5  -9   14.93    3.13
  -4  -5   8   26.87    3.13
   4   5  -8   26.14    3.57
  -4  -5   7  215.60    6.55
   4   5  -7  200.17    7.06
  -4  -5   6    0.29    1.60
   4   5  -6   -0.22    1.60
   4   5  -6    2.48    1.53
  -4  -5   5  383.22    8.30
   4   5  -5  355.48    8.59
   4   5  -5  357.38    7.06
  -4  -5   4   44.13    3.42
   4   5  -4   36.99    2.62
   4   5  -4   40.78    3.57
   4   5  -4   43.47    3.06
  -4  -5   3   61.31    3.86
   4   5  -3   52.65    2.99
   4   5  -3   59.20    3.86
  -4  -5   2  301.82    7.35
   4   5  -2  293.95    6.26
   4   5  -2  277.50    7.06
  -4  -5   1  265.70    6.99
   4   5  -1  256.96    6.12
   4   5  -1  250.70    6.63
  -4  -5   0   85.63    4.37
   4   5   0   85.85    3.93
   4   5   0   81.99    4.00
   4   5   0   81.99    2.04
   4   5   0   81.26    2.04
  -4  -5  -1   52.94    3.64
   4   5   1   57.74    3.57
   4   5   1   43.40    3.06
   4   5   1   50.32    2.18
   4   5   1   45.15    2.04
  -4  -5  -2   89.42    4.51
   4   5   2   92.69    4.30
   4   5   2   81.99    3.79
   4   5   2   92.69    3.13
   4   5   2   78.79    2.84
  -4  -5  -3  101.21    4.73
  -4  -5  -3  102.16    3.35
   4   5   3  110.82    4.81
   4   5   3  102.67    4.00
   4   5   3  110.97    3.64
   4   5   3   89.93    3.20
  -4  -5  -4   69.10    4.22
  -4  -5  -4   70.85    3.13
   4   5   4   71.36    4.15
   4   5   4   71.65    3.35
  -4  -5  -5   28.62    3.42
  -4  -5  -5   22.65    2.33
   4   5   5   24.68    3.13
   4   5   5   23.45    2.26
  -4  -5  -6   89.64    4.88
  -4  -5  -6   91.75    4.00
   4   5   6   87.67    4.81
  -4  -5  -7  100.85    5.10
  -4  -5  -7   99.32    4.44
  -4  -5  -7   97.06    3.57
  -4  -5  -7  101.07    3.64
   4   5   7   94.37    5.17
  -4  -5  -8  216.84    7.21
  -4  -5  -8  210.87    6.33
  -4  -5  -8  227.33    4.88
  -4  -5  -8  205.70    4.59
   4   5   8  210.58    7.43
  -4  -5  -9  164.56    6.48
  -4  -5  -9  154.00    5.90
  -4  -5  -9  172.43    3.79
  -4  -5  -9  157.06    3.57
   4   5   9  162.60    6.92
  -4  -5 -10   71.50    4.81
  -4  -5 -10   72.45    4.66
   4   5  10   75.22    5.24
  -4  -5 -11   80.97    5.24
  -4  -5 -11   89.56    5.24
   4   5  11   84.25    5.75
  -4  -5 -12    9.32    2.69
  -4  -5 -12    5.10    2.40
   4   5  12    9.10    2.91
  -4  -5 -13   55.63    5.02
   4   5  13   62.91    5.61
  -4  -5 -14    8.81    3.06
   4   5  14   10.78    3.35
  -4  -5 -15   22.65    4.44
  -3  -5  15   31.24    4.59
  -3  -5  14   18.20    3.79
   3   5 -14   15.15    3.50
  -3  -5  13   21.26    3.79
   3   5 -13   22.79    3.86
  -3  -5  12   55.19    4.95
   3   5 -12   48.79    5.02
  -3  -5  11   23.81    3.71
   3   5 -11   16.46    3.28
  -3  -5  10   11.43    2.33
   3   5 -10    9.61    2.69
  -3  -5   9   57.31    3.93
   3   5  -9   53.30    4.44
  -3  -5   8   16.97    2.62
   3   5  -8   12.60    2.69
  -3  -5   7  179.42    5.83
   3   5  -7  165.87    6.12
   3   5  -7  162.38    5.61
  -3  -5   6  204.03    6.04
   3   5  -6  177.09    6.12
   3   5  -6  189.03    4.88
  -3  -5   5  166.24    5.39
   3   5  -5  137.26    5.39
   3   5  -5  146.21    4.22
  -3  -5   4  224.71    6.12
   3   5  -4  207.74    4.44
   3   5  -4  194.34    6.04
   3   5  -4  205.34    4.88
  -3  -5   3  105.36    4.37
   3   5  -3   99.03    3.35
   3   5  -3   89.34    4.15
  -3  -5   2  168.35    5.32
   3   5  -2  159.25    4.30
   3   5  -2  158.08    5.17
  -3  -5   1  380.09    7.65
   3   5  -1  387.37    6.77
   3   5  -1  364.44    7.35
  -3  -5   0  104.78    4.30
   3   5   0  104.42    3.93
   3   5   0   97.57    3.93
   3   5   0   98.08    2.40
   3   5   0   89.64    2.26
  -3  -5  -1  418.47    8.08
  -3  -5  -1  415.99    5.53
   3   5   1  414.83    7.57
   3   5   1  379.29    7.14
   3   5   1  399.24    5.39
   3   5   1  364.87    5.17
  -3  -5  -2   15.15    2.40
  -3  -5  -2   13.54    1.60
   3   5   2   14.85    2.18
   3   5   2   14.34    1.97
   3   5   2   12.74    1.53
   3   5   2   12.38    1.38
  -3  -5  -3    3.20    1.53
  -3  -5  -3    5.46    1.24
   3   5   3    5.10    1.53
   3   5   3    4.81    1.38
   3   5   3    3.93    1.02
   3   5   3    3.93    0.95
  -3  -5  -4    5.46    1.67
  -3  -5  -4    5.24    1.31
   3   5   4    3.71    1.60
   3   5   4    4.08    1.31
  -3  -5  -5   33.20    3.13
  -3  -5  -5   34.66    2.55
  -3  -5  -5   43.32    3.50
  -3  -5  -5   35.32    2.18
   3   5   5   35.17    3.20
   3   5   5   34.51    2.33
  -3  -5  -6   14.85    2.40
  -3  -5  -6   15.22    2.18
  -3  -5  -6   17.84    1.82
  -3  -5  -6   15.73    1.75
   3   5   6   16.24    2.48
  -3  -5  -7   87.67    4.51
  -3  -5  -7   84.32    4.00
  -3  -5  -7   95.31    3.20
  -3  -5  -7   88.40    3.13
   3   5   7   92.47    4.81
  -3  -5  -8  269.63    7.35
  -3  -5  -8  260.39    6.92
  -3  -5  -8  282.01    4.81
  -3  -5  -8  261.55    4.59
   3   5   8  259.37    7.65
  -3  -5  -9   19.95    2.99
  -3  -5  -9   19.51    2.91
   3   5   9   21.26    3.20
  -3  -5 -10  137.33    5.75
  -3  -5 -10  136.09    5.83
   3   5  10  140.90    6.41
  -3  -5 -11   29.78    3.64
  -3  -5 -11   29.71    3.64
   3   5  11   33.28    4.15
  -3  -5 -12   66.26    4.59
  -3  -5 -12   69.68    5.02
   3   5  12   68.45    5.24
  -3  -5 -13   29.71    4.08
   3   5  13   36.63    4.51
  -3  -5 -14   48.42    5.02
   3   5  14   49.59    5.17
  -3  -5 -15   25.56    4.30
   3   5  15   27.67    4.37
  -2  -5  16   31.09    4.59
   2   5 -16   29.93    4.66
  -2  -5  15   11.07    3.35
   2   5 -15    9.25    3.28
  -2  -5  14   15.15    3.50
   2   5 -14   11.58    3.20
   2   5 -14   10.56    2.99
  -2  -5  13    4.00    2.55
   2   5 -13    3.93    2.69
   2   5 -13    1.67    2.26
  -2  -5  12   30.73    4.00
   2   5 -12   36.41    4.44
   2   5 -12   32.40    3.93
  -2  -5  11  104.63    5.68
  -2  -5  11  107.91    6.12
   2   5 -11  109.88    5.90
   2   5 -11   97.06    5.39
  -2  -5  10    2.69    2.04
  -2  -5  10    0.95    1.60
   2   5 -10    3.13    2.18
   2   5 -10    0.29    1.82
  -2  -5   9  319.44    8.37
  -2  -5   9  332.40    7.50
   2   5  -9  326.21    8.52
   2   5  -9  301.60    8.01
  -2  -5   8 1140.94   14.78
  -2  -5   8 1192.34   13.54
   2   5  -8 1111.01   14.42
  -2  -5   7  428.44    8.96
  -2  -5   7  439.29    8.23
   2   5  -7  366.77    8.23
   2   5  -7  391.89    6.41
  -2  -5   6  181.09    5.39
   2   5  -6  166.67    5.61
   2   5  -6  170.82    4.08
  -2  -5   5  380.60    4.81
  -2  -5   5  376.67    7.43
   2   5  -5  344.92    4.59
   2   5  -5  353.30    7.65
   2   5  -5  367.71    5.68
  -2  -5   4   27.31    2.62
   2   5  -4   24.47    1.75
   2   5  -4   23.37    2.62
   2   5  -4   26.87    1.97
  -2  -5   3  252.96    5.97
   2   5  -3  239.34    4.44
   2   5  -3  218.66    5.75
  -2  -5   2  130.27    4.37
   2   5  -2  127.13    3.50
   2   5  -2  118.40    4.30
  -2  -5   1   24.25    2.33
   2   5  -1   20.02    1.89
   2   5  -1   21.33    2.26
  -2  -5   0   23.16    2.18
   2   5   0   19.00    1.97
   2   5   0   16.97    2.11
   2   5   0   17.33    1.24
   2   5   0   15.80    1.17
  -2  -5  -1  155.39    4.73
   2   5   1  154.22    4.44
   2   5   1  144.76    4.22
   2   5   1  149.49    3.35
   2   5   1  135.07    3.13
  -2  -5  -2    1.53    1.09
  -2  -5  -2    1.60    0.80
  -2  -5  -2    2.84    1.09
  -2  -5  -2    1.60    0.80
   2   5   2    1.97    1.17
   2   5   2    3.50    1.17
   2   5   2    1.89    1.02
   2   5   2    1.60    0.80
  -2  -5  -3   28.25    2.48
  -2  -5  -3   29.71    2.04
  -2  -5  -3   29.42    1.89
  -2  -5  -3   26.65    1.82
   2   5   3   30.00    2.55
   2   5   3   28.25    2.11
   2   5   3   29.20    1.97
   2   5   3   29.56    1.89
  -2  -5  -4  421.09    7.79
  -2  -5  -4  419.92    6.77
  -2  -5  -4  432.30    6.41
  -2  -5  -4  388.18    6.04
   2   5   4  421.02    7.94
   2   5   4  409.44    6.41
  -2  -5  -5   14.71    2.18
  -2  -5  -5   16.89    2.11
  -2  -5  -5   18.64    1.67
  -2  -5  -5   15.58    1.53
   2   5   5   15.51    2.26
   2   5   5   14.34    1.75
  -2  -5  -6  245.97    6.33
  -2  -5  -6  257.55    6.04
  -2  -5  -6  266.28    4.88
  -2  -5  -6  244.88    4.66
   2   5   6  254.63    6.77
   2   5   6  245.53    4.73
  -2  -5  -7   49.37    3.35
  -2  -5  -7   49.66    3.28
  -2  -5  -7   52.28    2.26
  -2  -5  -7   52.35    2.18
   2   5   7   50.82    3.64
  -2  -5  -8   86.58    4.30
  -2  -5  -8   86.21    4.30
  -2  -5  -8   91.38    2.40
  -2  -5  -8   87.96    2.33
   2   5   8   89.27    4.66
  -2  -5  -9   98.59    4.59
  -2  -5  -9   91.53    4.66
   2   5   9   94.80    5.02
  -2  -5 -10  199.08    6.26
  -2  -5 -10  193.03    6.70
   2   5  10  194.85    6.99
  -2  -5 -11   30.95    3.28
  -2  -5 -11   27.52    3.57
   2   5  11   31.24    3.93
  -2  -5 -12   67.57    4.88
   2   5  12   67.72    5.02
  -2  -5 -13  146.28    6.92
   2   5  13  155.24    7.06
  -2  -5 -14   40.85    4.73
   2   5  14   48.06    4.95
  -2  -5 -15   74.85    5.97
   2   5  15   84.10    6.12
   2   5  16   42.60    5.17
  -1  -5  16   21.41    4.00
   1   5 -16   23.66    4.22
  -1  -5  15    1.89    2.55
   1   5 -15    1.53    2.69
  -1  -5  14   17.84    3.50
   1   5 -14   19.22    3.64
  -1  -5  13   53.81    4.66
   1   5 -13   52.35    5.10
   1   5 -13   49.15    4.30
  -1  -5  12    7.43    2.62
   1   5 -12    6.84    2.62
   1   5 -12    8.01    2.40
  -1  -5  11  123.13    5.83
  -1  -5  11  124.66    4.95
   1   5 -11  127.43    6.04
   1   5 -11  111.84    5.32
  -1  -5  10   37.43    3.86
  -1  -5  10   38.45    3.20
   1   5 -10   40.12    4.00
   1   5 -10   36.48    3.57
  -1  -5   9  229.37    7.06
  -1  -5   9  236.43    6.33
   1   5  -9  237.16    7.21
   1   5  -9  217.13    6.55
  -1  -5   8  325.48    7.86
  -1  -5   8  333.56    7.21
   1   5  -8  325.70    7.86
   1   5  -8  298.98    7.28
  -1  -5   7  501.18    6.04
  -1  -5   7  512.69    9.32
  -1  -5   7  539.85    8.74
   1   5  -7  514.36    9.32
   1   5  -7  492.08    8.96
   1   5  -7  510.72    6.26
  -1  -5   6  352.64    5.02
  -1  -5   6  364.51    7.65
  -1  -5   6  374.78    7.21
   1   5  -6  365.97    7.65
   1   5  -6  326.57    7.14
   1   5  -6  347.55    4.88
  -1  -5   5  758.15    7.21
  -1  -5   5  764.12   10.49
  -1  -5   5  780.06   10.05
   1   5  -5  690.58    5.02
   1   5  -5  686.13    9.90
   1   5  -5  735.21    6.70
  -1  -5   4  649.58    6.70
  -1  -5   4  659.41    9.47
  -1  -5   4  666.91    9.17
   1   5  -4  608.73    5.53
   1   5  -4  608.00    9.10
   1   5  -4  614.12    6.04
  -1  -5   3   92.84    2.77
  -1  -5   3   91.60    3.64
   1   5  -3   86.07    2.48
   1   5  -3   85.56    3.57
  -1  -5   2  488.59    6.12
  -1  -5   2  480.65    7.65
   1   5  -2  462.45    5.75
   1   5  -2  431.35    7.28
  -1  -5   1  258.57    5.61
   1   5  -1  254.71    4.66
   1   5  -1  241.02    5.39
   1   5  -1  220.19    2.77
   1   5  -1  209.78    2.69
  -1  -5   0  365.38    6.63
   1   5   0  364.80    5.83
   1   5   0  334.66    6.12
   1   5   0  334.88    4.30
  -1  -5  -1  121.75    4.00
  -1  -5  -1  128.52    3.28
  -1  -5  -1  119.34    3.13
   1   5   1  123.71    3.71
   1   5   1  112.57    3.64
   1   5   1  121.89    2.99
   1   5   1  112.86    2.84
  -1  -5  -2   75.00    3.20
  -1  -5  -2   79.66    2.69
  -1  -5  -2   71.58    2.55
   1   5   2   76.60    3.20
   1   5   2   75.07    2.91
   1   5   2   76.24    2.55
   1   5   2   75.87    2.55
  -1  -5  -3   55.70    2.62
  -1  -5  -3   65.46    2.48
  -1  -5  -3   57.38    2.26
   1   5   3   53.15    2.91
   1   5   3   55.19    2.55
   1   5   3   55.19    2.33
   1   5   3   56.21    2.33
  -1  -5  -4  320.68    6.33
  -1  -5  -4  302.11    5.83
  -1  -5  -4  343.10    5.32
  -1  -5  -4  306.26    5.02
   1   5   4  323.01    6.63
   1   5   4  341.36    5.61
   1   5   4  321.48    5.39
  -1  -5  -5  128.01    4.22
  -1  -5  -5  123.71    4.08
  -1  -5  -5  130.05    3.28
  -1  -5  -5  125.82    3.20
   1   5   5  129.76    4.59
  -1  -5  -6  292.72    6.26
  -1  -5  -6  281.79    6.26
  -1  -5  -6  322.64    4.81
  -1  -5  -6  291.26    4.51
   1   5   6  311.06    7.06
  -1  -5  -7  179.93    5.10
  -1  -5  -7  175.56    5.39
  -1  -5  -7  189.90    3.28
  -1  -5  -7  180.36    3.20
   1   5   7  191.87    5.90
  -1  -5  -8   63.49    3.42
  -1  -5  -8   58.98    3.64
   1   5   8   65.90    4.00
  -1  -5  -9  165.14    5.17
  -1  -5  -9  161.36    5.75
   1   5   9  160.19    5.97
  -1  -5 -10   60.87    3.57
  -1  -5 -10   60.29    4.15
   1   5  10   61.97    4.37
  -1  -5 -11   37.06    3.20
  -1  -5 -11   36.77    3.71
   1   5  11   40.34    3.86
  -1  -5 -12    3.64    2.11
   1   5  12    3.20    2.11
  -1  -5 -13   95.82    5.90
   1   5  13   96.04    5.68
  -1  -5 -14    3.13    2.48
   1   5  14    4.73    2.33
  -1  -5 -15   16.16    3.71
   1   5  15   13.69    3.20
  -1  -5 -16   18.71    4.00
   1   5  16   22.65    3.86
   1   5  17   23.08    4.00
   0  -5  17    3.50    3.13
   0   5 -17    7.94    3.57
   0  -5  16   13.98    3.57
   0   5 -16   11.72    3.50
   0   5 -15   55.19    5.46
   0   5 -14    2.69    2.55
   0   5 -13    0.44    2.33
   0   5 -13    0.73    1.82
   0   5 -12  170.02    6.92
   0   5 -12  162.67    5.97
   0   5 -11   57.16    4.51
   0   5 -11   54.61    3.93
   0   5 -10  351.99    8.66
   0   5 -10  330.14    7.65
   0  -5   9  637.20    8.08
   0   5  -9  683.73   11.29
   0   5  -9  650.67   10.27
   0  -5   8  465.29    6.63
   0   5  -8  484.51    9.17
   0   5  -8  463.90    8.45
   0  -5   7  264.90    3.86
   0  -5   7  255.73    4.81
   0  -5   7  265.92    6.63
   0   5  -7  275.53    6.77
   0   5  -7  244.37    6.04
   0   5  -7  265.92    3.93
   0  -5   6  128.81    3.42
   0  -5   6  134.85    4.66
   0   5  -6  136.38    4.73
   0   5  -6  127.21    4.37
   0   5  -6  135.95    2.62
   0  -5   5  843.71    8.08
   0  -5   5  882.88   10.78
   0   5  -5  871.81   10.70
   0   5  -5  800.09   10.12
   0   5  -5  858.12    5.75
   0  -5   4  287.40    4.73
   0  -5   4  306.26    6.19
   0   5  -4  281.21    3.13
   0   5  -4  293.15    6.04
   0   5  -4  280.48    5.97
   0   5  -4  282.96    3.28
   0  -5   3   13.98    1.46
   0  -5   3   14.49    1.89
   0  -5   3   14.42    1.82
   0   5  -3   13.91    1.17
   0   5  -3   13.54    1.89
   0  -5   2 1334.48   10.05
   0  -5   2 1391.71   12.23
   0   5  -2 1354.50    8.81
   0   5  -2 1261.88   11.65
   0  -5   1   54.10    2.33
   0  -5   1   52.57    2.62
   0   5  -1   56.14    2.18
   0   5  -1   51.33    2.55
   0   5  -1   50.46    1.60
   0   5  -1   50.39    1.53
   0  -5   0   84.83    2.91
   0  -5   0   87.45    3.28
   0   5   0   84.03    2.77
   0   5   0   83.01    2.18
   0   5   0   75.80    2.11
   0  -5  -1  356.87    6.12
   0  -5  -1  330.94    4.81
   0  -5  -1  352.57    5.02
   0   5   1  359.05    5.75
   0   5   1  395.53    5.02
   0   5   1  352.93    4.73
   0  -5  -2  413.30    6.55
   0  -5  -2  413.44    5.46
   0  -5  -2  381.40    5.24
   0   5   2  396.40    6.33
   0   5   2  396.26    5.32
   0   5   2  390.87    5.32
   0  -5  -3   47.98    2.55
   0  -5  -3   49.44    2.04
   0  -5  -3   47.33    1.97
   0   5   3   47.69    2.62
   0   5   3   53.08    2.18
   0   5   3   49.22    2.11
   0  -5  -4  237.01    5.10
   0  -5  -4  222.52    5.02
   0  -5  -4  238.32    4.08
   0  -5  -4  217.21    3.93
   0   5   4  231.84    5.39
   0   5   4  252.30    4.59
   0  -5  -5  792.66    9.17
   0  -5  -5  749.41    9.47
   0  -5  -5  826.96    7.21
   0  -5  -5  740.16    6.77
   0   5   5  794.41   10.27
   0  -5  -6   28.91    2.26
   0  -5  -6   31.82    2.55
   0  -5  -6   31.24    1.53
   0  -5  -6   29.64    1.46
   0   5   6   30.95    2.62
   0  -5  -7  304.22    5.97
   0  -5  -7  314.49    6.92
   0   5   7  334.44    7.35
   0  -5  -8  129.61    4.15
   0  -5  -8  132.01    4.95
   0   5   8  137.47    5.17
   0  -5  -9  664.73    9.03
   0  -5  -9  633.20   10.78
   0   5   9  659.85   11.00
   0  -5 -10    7.14    1.67
   0  -5 -10    7.06    2.26
   0   5  10    5.02    2.04
   0  -5 -11   28.98    3.57
   0   5  11   28.91    3.50
   0  -5 -12   81.19    5.17
   0   5  12   91.24    5.10
   0  -5 -13   46.09    4.51
   0   5  13   54.54    4.51
   0  -5 -14    4.95    2.55
   0   5  14    6.84    2.40
   0  -5 -15   17.69    3.79
   0   5  15   13.83    3.06
   0  -5 -16   55.78    5.61
   0   5  16   60.65    5.24
  -1   5 -17   15.51    3.93
  -1   5 -16    2.77    2.77
  -1   5 -15   21.12    3.79
  -1   5 -14  145.48    7.06
  -1   5 -13  110.10    6.12
  -1   5 -12   41.94    4.30
  -1   5 -12   38.23    3.35
   1  -5  11    9.10    1.89
  -1   5 -11   11.65    2.69
  -1   5 -11    9.32    2.18
   1  -5  10  318.20    6.48
  -1   5 -10  346.74    8.52
  -1   5 -10  346.09    7.43
   1  -5   9   97.86    3.64
  -1   5  -9   97.28    4.66
  -1   5  -9   96.63    4.15
   1  -5   8  164.12    4.37
  -1   5  -8  177.74    5.68
  -1   5  -8  165.07    4.95
   1  -5   7  162.09    4.15
  -1   5  -7  180.29    5.39
  -1   5  -7  167.40    4.81
   1  -5   6   77.77    2.91
  -1   5  -6   83.59    3.71
  -1   5  -6   80.24    3.42
   1  -5   5  345.00    5.53
  -1   5  -5  355.19    6.70
  -1   5  -5  337.93    6.33
   1  -5   4  312.96    5.17
  -1   5  -4  326.43    6.12
  -1   5  -4  312.30    5.97
   1  -5   3 3109.26   15.66
   1  -5   3 3232.54   22.43
  -1   5  -3 3308.05   11.36
  -1   5  -3 3239.97   17.91
   1  -5   2  208.32    4.22
   1  -5   2  216.99    4.59
  -1   5  -2  211.89    3.42
  -1   5  -2  216.92    4.59
  -1   5  -2  206.65    2.26
  -1   5  -2  194.93    2.18
   1  -5   1 1347.87   10.41
   1  -5   1 1431.61   10.85
   1  -5   1 1406.42   11.50
  -1   5  -1 1344.45   11.21
  -1   5  -1 1405.69    9.25
  -1   5  -1 1340.59    7.57
  -1   5  -1 1209.74    7.21
   1  -5   0 1922.67   12.67
   1  -5   0 1996.44   13.47
   1  -5   0 1996.58   14.64
  -1   5   0 1862.82   13.18
  -1   5   0 1916.78   11.65
  -1   5   0 1912.19   10.05
  -1   5   0 1744.42    9.68
   1  -5  -1 1651.59   12.09
   1  -5  -1 1717.41   12.31
   1  -5  -1 1716.90   10.41
   1  -5  -1 1656.46   10.27
  -1   5   1 1598.14   12.23
  -1   5   1 1691.34   11.65
  -1   5   1 1717.05   10.19
  -1   5   1 1654.28   10.05
   1  -5  -2  310.48    5.53
   1  -5  -2  327.45    5.46
   1  -5  -2  302.47    4.44
  -1   5   2  317.04    5.53
  -1   5   2  328.03    5.61
  -1   5   2  348.78    4.88
  -1   5   2  326.72    4.73
   1  -5  -3  124.51    3.50
   1  -5  -3  114.10    2.77
   1  -5  -3  110.97    2.69
  -1   5   3  114.90    3.50
  -1   5   3  122.77    3.71
  -1   5   3  125.61    3.06
  -1   5   3  118.83    2.99
   1  -5  -4  232.42    4.59
   1  -5  -4  243.57    3.79
   1  -5  -4  213.93    3.57
  -1   5   4  237.67    4.88
  -1   5   4  241.24    5.32
   1  -5  -5  152.47    3.79
   1  -5  -5  163.11    4.59
   1  -5  -5  162.23    2.91
   1  -5  -5  146.79    2.69
  -1   5   5  164.12    4.66
   1  -5  -6  605.09    7.35
   1  -5  -6  578.22    8.74
  -1   5   6  610.99    9.10
   1  -5  -7   61.89    2.69
   1  -5  -7   64.37    3.50
  -1   5   7   63.35    3.42
   1  -5  -8   86.14    3.06
   1  -5  -8   87.45    4.15
  -1   5   8   97.13    4.30
   1  -5  -9  162.67    4.15
   1  -5  -9  171.99    5.83
  -1   5   9  179.20    5.83
   1  -5 -10  296.65    7.86
   1  -5 -10  277.72    7.50
  -1   5  10  306.19    7.79
   1  -5 -11   98.23    5.24
  -1   5  11  107.69    5.17
   1  -5 -12   54.03    4.44
  -1   5  12   62.69    4.44
   1  -5 -13   -0.29    1.75
  -1   5  13    1.82    1.89
   1  -5 -14   26.14    4.00
  -1   5  14   28.03    3.71
   1  -5 -15   32.99    4.44
  -1   5  15   40.70    4.37
   1  -5 -16   27.45    4.59
  -1   5  16   28.03    3.93
  -2   5 -17   88.40    6.70
  -2   5 -16   15.51    3.64
  -2   5 -15    3.93    2.77
  -2   5 -14   66.12    5.32
   2  -5  13   11.00    2.33
  -2   5 -13   13.40    3.06
   2  -5  12   74.27    4.00
  -2   5 -12   80.68    5.17
   2  -5  11  266.28    6.63
  -2   5 -11  286.82    8.08
  -2   5 -11  266.36    6.41
   2  -5  10   35.02    2.84
  -2   5 -10   33.42    3.57
  -2   5 -10   29.78    2.77
   2  -5   9  151.02    4.66
  -2   5  -9  160.70    5.68
  -2   5  -9  149.85    4.66
   2  -5   8  288.27    6.04
  -2   5  -8  305.24    7.14
  -2   5  -8  299.71    6.19
   2  -5   7  554.56    7.86
  -2   5  -7  599.85    9.39
  -2   5  -7  586.74    8.30
   2  -5   6  161.65    4.22
  -2   5  -6  165.73    4.88
  -2   5  -6  156.70    4.37
   2  -5   5   16.89    1.67
  -2   5  -5   20.39    1.82
  -2   5  -5   18.20    2.04
   2  -5   4  486.91    6.70
  -2   5  -4  522.37    6.84
  -2   5  -4  498.27    7.28
   2  -5   3 1815.42   12.45
  -2   5  -3 1921.51   13.03
  -2   5  -3 1899.23   13.25
   2  -5   2 1314.60   10.49
  -2   5  -2 1366.37   11.00
  -2   5  -2 1343.51   10.49
  -2   5  -2 1355.08    6.92
  -2   5  -2 1207.34    6.55
   2  -5   1  644.85    7.43
   2  -5   1  670.84    6.99
  -2   5  -1  639.53    7.57
  -2   5  -1  653.66    6.92
  -2   5  -1  684.97    5.75
  -2   5  -1  572.47    5.24
   2  -5   0  219.32    4.44
   2  -5   0  226.53    3.86
   2  -5   0  220.19    3.64
  -2   5   0  214.88    4.51
  -2   5   0  224.71    3.86
  -2   5   0  230.09    3.64
  -2   5   0  202.28    3.35
   2  -5  -1  862.35    8.74
   2  -5  -1  893.29    8.45
   2  -5  -1  900.50    7.35
  -2   5   1  853.46    8.74
  -2   5   1  876.62    8.30
  -2   5   1  914.34    7.43
  -2   5   1  739.58    6.63
   2  -5  -2  349.58    5.75
   2  -5  -2  347.18    5.24
   2  -5  -2  343.83    4.51
   2  -5  -2  340.12    4.44
  -2   5   2  327.08    5.53
  -2   5   2  332.62    5.53
  -2   5   2  340.34    4.66
  -2   5   2  229.44    3.86
   2  -5  -3  431.35    6.63
   2  -5  -3  443.95    5.75
   2  -5  -3  448.03    4.95
   2  -5  -3  411.69    4.73
  -2   5   3  430.63    6.33
  -2   5   3  437.03    6.63
   2  -5  -4 1323.12    9.76
   2  -5  -4 1235.08    7.50
   2  -5  -4 1124.26    7.14
  -2   5   4 1220.96   10.56
  -2   5   4 1228.53   11.50
   2  -5  -5  114.83    2.99
   2  -5  -5  107.62    3.79
   2  -5  -5  115.70    1.89
   2  -5  -5  109.44    1.82
  -2   5   5  110.61    3.42
  -2   5   5  114.54    3.93
   2  -5  -6  277.28    4.51
   2  -5  -6  266.14    6.04
  -2   5   6  269.49    5.10
  -2   5   6  274.29    6.12
   2  -5  -7  222.09    4.08
   2  -5  -7  226.24    5.90
  -2   5   7  233.66    4.81
  -2   5   7  240.14    5.97
   2  -5  -8   25.78    1.75
   2  -5  -8   26.72    2.77
   2  -5  -8   25.78    1.67
  -2   5   8   30.36    2.11
  -2   5   8   27.82    2.69
   2  -5  -9   63.49    3.93
  -2   5   9   62.91    2.77
  -2   5   9   62.55    3.71
   2  -5 -10  158.23    5.97
  -2   5  10  160.92    5.75
   2  -5 -11   41.72    3.93
  -2   5  11   41.14    3.71
   2  -5 -12   45.22    4.30
  -2   5  12   49.88    4.08
   2  -5 -13   85.19    5.46
  -2   5  13   89.05    5.10
   2  -5 -14   62.04    5.17
  -2   5  14   65.97    4.81
   2  -5 -15   34.73    4.73
  -2   5  15   36.26    4.08
   2  -5 -16    4.59    2.84
  -2   5  16    5.68    2.48
  -3   5 -17   16.24    4.00
  -3   5 -16   14.13    3.86
  -3   5 -15   55.19    5.53
   3  -5  14    2.04    1.89
  -3   5 -14    0.44    2.48
   3  -5  13    8.88    2.18
  -3   5 -13    9.25    2.91
   3  -5  12   25.19    2.99
  -3   5 -12   26.50    3.57
   3  -5  11  455.89    8.96
  -3   5 -11  486.84   10.34
   3  -5  10  220.34    6.12
  -3   5 -10  233.08    7.06
  -3   5 -10  226.67    5.46
   3  -5   9   27.16    2.62
  -3   5  -9   29.13    3.13
  -3   5  -9   27.16    2.40
   3  -5   8  429.46    7.65
  -3   5  -8  467.84    8.74
  -3   5  -8  467.11    7.28
   3  -5   7   78.79    3.42
  -3   5  -7   88.47    2.99
  -3   5  -7   80.53    3.79
  -3   5  -7   82.72    3.28
   3  -5   6  230.02    5.24
  -3   5  -6  256.31    4.81
  -3   5  -6  244.88    5.75
   3  -5   5  306.84    5.75
  -3   5  -5  354.03    5.61
  -3   5  -5  339.46    6.33
   3  -5   4  524.12    7.28
  -3   5  -4  567.23    7.06
  -3   5  -4  561.47    7.65
   3  -5   3 2093.35   13.98
  -3   5  -3 2184.88   13.76
  -3   5  -3 2164.86   13.83
  -3   5  -3 2274.44   11.58
  -3   5  -3 2004.15   11.50
   3  -5   2 1184.48   10.34
  -3   5  -2 1284.60   10.63
  -3   5  -2 1224.31    9.68
  -3   5  -2 1248.99    7.50
  -3   5  -2 1096.23    7.06
   3  -5   1  586.89    7.21
   3  -5   1  630.28    4.51
   3  -5   1  626.13    6.12
   3  -5   1  540.14    5.68
  -3   5  -1  630.28    7.50
  -3   5  -1  595.55    6.26
  -3   5  -1  543.64    5.39
   3  -5   0  622.13    7.43
   3  -5   0  642.01    5.39
   3  -5   0  672.88    6.33
   3  -5   0  629.27    6.12
  -3   5   0  647.54    7.65
  -3   5   0  618.27    5.24
  -3   5   0  624.10    5.83
  -3   5   0  667.71    6.19
  -3   5   0  572.40    5.75
   3  -5  -1  745.62    8.23
   3  -5  -1  791.06    5.90
   3  -5  -1  765.14    6.63
   3  -5  -1  844.36    6.99
   3  -5  -1  721.67    6.48
  -3   5   1  768.41    8.30
  -3   5   1  745.91    6.55
  -3   5   1  771.62    5.83
  -3   5   1  814.29    7.06
  -3   5   1  538.98    5.68
   3  -5  -2  208.25    3.93
   3  -5  -2  210.58    3.42
   3  -5  -2  202.79    3.35
  -3   5   2  211.60    4.51
  -3   5   2  211.53    3.93
  -3   5   2  238.32    4.73
   3  -5  -3 1570.32   10.05
   3  -5  -3 1495.91   11.14
   3  -5  -3 1564.43    8.52
   3  -5  -3 1480.69    8.30
  -3   5   3 1532.02   11.80
  -3   5   3 1477.05   11.07
   3  -5  -4 1421.49   12.16
   3  -5  -4 1445.74    9.32
   3  -5  -4 1393.02   11.58
   3  -5  -4 1392.87    6.77
   3  -5  -4 1278.99    6.48
  -3   5   4 1413.77   11.43
  -3   5   4 1405.18   11.65
   3  -5  -5 2061.53   10.85
   3  -5  -5 1911.10   14.56
  -3   5   5 1965.13   13.47
  -3   5   5 1923.04   14.56
   3  -5  -6 1160.67    7.94
   3  -5  -6 1162.71   12.31
   3  -5  -6 1132.42   11.94
  -3   5   6 1206.91   10.63
  -3   5   6 1149.31   12.01
  -3   5   6 1154.77   12.23
   3  -5  -7    4.37    0.87
   3  -5  -7    4.15    1.53
   3  -5  -7    4.37    0.73
  -3   5   7    4.51    1.17
  -3   5   7    3.28    1.38
  -3   5   7    4.73    1.53
   3  -5  -8  165.94    5.39
  -3   5   8  185.02    4.37
  -3   5   8  183.42    5.61
  -3   5   8  188.01    5.53
   3  -5  -9  163.76    5.75
  -3   5   9  163.32    4.15
  -3   5   9  168.64    5.53
   3  -5 -10  326.94    8.23
  -3   5  10  345.00    8.08
   3  -5 -11  178.25    6.63
  -3   5  11  191.65    6.41
   3  -5 -12  138.35    6.26
  -3   5  12  152.47    6.04
   3  -5 -13   90.87    5.61
  -3   5  13   93.79    5.17
   3  -5 -14   21.48    3.79
  -3   5  14   18.49    3.06
   3  -5 -15    7.21    2.99
  -3   5  15    9.98    2.62
   3  -5 -16   38.23    5.02
  -3   5  16   35.02    5.68
  -4   5 -17   30.80    6.48
   4  -5  16   10.49    2.99
  -4   5 -16   11.72    3.64
   4  -5  15   58.98    4.73
  -4   5 -15   65.02    5.68
   4  -5  14   33.49    3.79
  -4   5 -14   36.55    4.51
   4  -5  13   21.26    3.13
  -4   5 -13   28.69    4.00
   4  -5  12   11.29    2.40
  -4   5 -12   13.11    2.91
   4  -5  11  143.15    5.53
  -4   5 -11  156.26    6.33
   4  -5  10  123.79    5.02
  -4   5 -10  125.46    5.46
   4  -5   9  765.57   11.07
  -4   5  -9  821.35   12.16
  -4   5  -9  834.89    9.39
   4  -5   8  148.32    4.95
  -4   5  -8  180.29    4.08
  -4   5  -8  162.81    5.46
  -4   5  -8  166.82    4.37
   4  -5   7   74.05    3.50
  -4   5  -7   81.99    2.99
  -4   5  -7   80.46    3.86
   4  -5   6   19.37    2.11
  -4   5  -6   20.75    1.89
  -4   5  -6   17.77    2.18
   4  -5   5  413.44    7.06
  -4   5  -5  459.75    6.48
  -4   5  -5  422.98    7.14
   4  -5   4 1081.37   10.85
  -4   5  -4 1219.79   10.49
  -4   5  -4 1114.87   10.70
  -4   5  -4 1190.81    5.97
   4  -5   3  272.91    5.39
   4  -5   3  269.71    3.13
  -4   5  -3  307.13    5.39
  -4   5  -3  279.24    5.10
  -4   5  -3  296.65    3.79
  -4   5  -3  265.48    3.57
   4  -5   2  406.31    6.41
   4  -5   2  422.91    4.08
  -4   5  -2  410.46    5.68
  -4   5  -2  441.04    4.95
  -4   5  -2  376.38    4.59
   4  -5   1  647.03    7.86
   4  -5   1  662.91    5.53
   4  -5   1    0.00    0.15
   4  -5   1  623.95    6.33
  -4   5  -1  678.05    7.94
  -4   5  -1  640.99    6.48
  -4   5  -1  779.34    6.84
  -4   5  -1  580.99    5.90
   4  -5   0  278.52    5.17
   4  -5   0  285.58    4.08
   4  -5   0  284.56    4.22
   4  -5   0  277.06    4.22
  -4   5   0  284.12    5.32
  -4   5   0  278.37    3.86
  -4   5   0  314.78    4.51
  -4   5   0  258.20    4.08
   4  -5  -1   46.16    2.40
   4  -5  -1   42.16    1.97
   4  -5  -1   45.51    1.82
   4  -5  -1   44.85    1.89
  -4   5   1   45.29    2.48
  -4   5   1   42.82    1.46
  -4   5   1   47.84    1.97
  -4   5   1   34.51    1.67
   4  -5  -2  650.02    7.86
   4  -5  -2  694.36    4.15
   4  -5  -2  662.03    7.21
   4  -5  -2  637.71    5.75
   4  -5  -2  640.19    5.75
  -4   5   2  648.20    7.94
   4  -5  -3  630.50    7.94
   4  -5  -3  616.30    7.50
   4  -5  -3  602.40    4.88
   4  -5  -3  591.91    4.88
  -4   5   3  613.61    7.79
   4  -5  -4   46.82    2.55
   4  -5  -4   46.60    1.82
   4  -5  -4   49.44    2.62
  -4   5   4   44.64    2.40
   4  -5  -5  843.63    9.61
   4  -5  -5  860.60    6.33
   4  -5  -5  854.92    9.98
  -4   5   5  837.59    9.17
  -4   5   5  779.77    9.54
   4  -5  -6  195.22    2.84
   4  -5  -6  185.53    5.17
   4  -5  -6  187.13    5.17
  -4   5   6  194.27    4.59
  -4   5   6  189.25    5.17
   4  -5  -7  159.83    5.10
   4  -5  -7  161.72    5.10
  -4   5   7  164.42    4.30
  -4   5   7  157.79    5.02
   4  -5  -8   31.24    2.99
   4  -5  -8   32.26    2.99
  -4   5   8   33.93    2.40
  -4   5   8   34.15    2.99
   4  -5  -9   15.29    2.55
   4  -5  -9   22.79    2.99
  -4   5   9   20.90    2.11
  -4   5   9   25.19    3.06
  -4   5   9   20.61    2.62
   4  -5 -10   24.68    3.35
  -4   5  10   24.98    3.28
  -4   5  10   26.58    3.13
   4  -5 -11   74.42    4.73
  -4   5  11   77.26    4.66
  -4   5  11   78.35    4.44
   4  -5 -12  187.79    7.14
  -4   5  12  197.33    6.77
   4  -5 -13    8.66    2.77
  -4   5  13    7.57    2.40
   4  -5 -14    6.33    2.77
  -4   5  14    7.57    2.33
   4  -5 -15   26.87    4.30
  -4   5  15   31.31    3.86
   4  -5 -16    2.69    2.77
   5  -5  17   24.61    4.00
   5  -5  16   61.53    5.17
  -5   5 -16   53.96    5.75
   5  -5  15   11.50    2.91
  -5   5 -15   12.31    3.42
   5  -5  14    5.32    2.18
  -5   5 -14    6.41    2.91
   5  -5  13   40.63    4.00
  -5   5 -13   39.98    4.51
   5  -5  12   76.60    4.73
  -5   5 -12   86.21    5.39
   5  -5  11   30.58    3.35
  -5   5 -11   32.40    3.93
   5  -5  10    9.25    2.11
  -5   5 -10   12.89    2.77
   5  -5   9  598.76   10.34
  -5   5  -9  612.74   10.78
  -5   5  -9  632.69    8.16
   5  -5   8  121.96    4.73
  -5   5  -8  141.77    3.86
  -5   5  -8  111.70    4.81
   5  -5   7  296.79    6.84
  -5   5  -7  350.97    5.90
  -5   5  -7  307.57    7.06
   5  -5   6   27.45    2.48
  -5   5  -6   30.07    2.18
  -5   5  -6   23.08    2.48
   5  -5   5  730.33    9.76
  -5   5  -5  824.41    9.03
  -5   5  -5  759.97    9.68
  -5   5  -5  792.59    5.02
  -5   5  -5  817.35    5.10
   5  -5   4  215.31    5.24
  -5   5  -4  234.83    4.95
  -5   5  -4  220.77    5.10
  -5   5  -4  241.67    3.57
  -5   5  -4  215.90    3.35
   5  -5   3   38.74    2.48
   5  -5   3   36.26    1.67
  -5   5  -3   42.52    2.48
  -5   5  -3   37.94    2.26
  -5   5  -3   43.62    1.82
  -5   5  -3   34.44    1.60
   5  -5   2  373.61    6.41
   5  -5   2  373.69    4.73
   5  -5   2  351.77    5.10
  -5   5  -2  396.19    6.41
  -5   5  -2  379.87    5.68
  -5   5  -2  399.97    5.17
  -5   5  -2  347.47    4.81
   5  -5   1  343.47    6.04
   5  -5   1  345.36    4.81
   5  -5   1  366.70    5.10
   5  -5   1  342.23    4.88
  -5   5  -1  363.93    6.19
  -5   5  -1  343.61    4.95
  -5   5  -1  357.96    5.02
  -5   5  -1  326.28    4.73
   5  -5   0   83.59    3.13
   5  -5   0   83.01    2.69
   5  -5   0   88.18    2.55
   5  -5   0   84.83    2.48
  -5   5   0   86.36    3.28
  -5   5   0   81.12    2.33
  -5   5   0   93.35    2.69
  -5   5   0   71.07    2.26
   5  -5  -1   48.86    2.55
   5  -5  -1   52.79    2.40
   5  -5  -1   55.48    2.04
   5  -5  -1   49.44    1.89
  -5   5   1   52.65    2.69
  -5   5   1   51.63    1.67
   5  -5  -2 1394.69   11.72
   5  -5  -2 1358.36   11.00
   5  -5  -2 1367.24    8.16
   5  -5  -2 1353.77    8.08
  -5   5   2 1349.77   11.94
   5  -5  -3   17.55    1.82
   5  -5  -3   15.44    1.82
   5  -5  -3   13.62    0.95
   5  -5  -3   12.38    0.87
  -5   5   3   13.76    1.75
   5  -5  -4  308.44    5.75
   5  -5  -4  306.04    5.97
  -5   5   4  289.80    5.75
   5  -5  -5  948.56   10.19
   5  -5  -5  949.72    6.19
   5  -5  -5  918.85   10.78
  -5   5   5  892.56    9.98
   5  -5  -6  136.60    4.51
   5  -5  -6  150.95    4.88
  -5   5   6  142.57    4.22
   5  -5  -7  260.46    6.33
   5  -5  -7  282.67    6.84
  -5   5   7  277.72    5.75
   5  -5  -8  500.67    9.03
   5  -5  -8  504.53    9.39
  -5   5   8  508.98    7.79
  -5   5   8  480.58    9.10
   5  -5  -9  631.30   10.63
   5  -5  -9  672.88   11.29
  -5   5   9  688.10    9.03
  -5   5   9  668.66   11.21
   5  -5 -10  374.63    8.74
   5  -5 -10  364.80    8.96
  -5   5  10  362.62    8.81
   5  -5 -11   52.14    4.37
   5  -5 -11   59.05    4.66
  -5   5  11   61.82    4.37
  -5   5  11   51.70    4.00
   5  -5 -12  163.76    6.77
   5  -5 -12  166.67    7.06
  -5   5  12  166.67    6.84
  -5   5  12  165.73    6.33
   5  -5 -13    1.60    2.18
  -5   5  13    0.66    2.11
  -5   5  13    2.62    1.97
   5  -5 -14    0.87    2.26
  -5   5  14   -0.36    2.11
  -5   5  14    1.67    1.89
   5  -5 -15   42.67    5.10
  -5   5  15   52.14    4.59
   5  -5 -16   21.55    4.15
   6  -5  16    8.59    2.91
  -6   5 -16   11.58    3.64
   6  -5  15   40.56    4.51
  -6   5 -15   46.60    5.39
   6  -5  14    9.39    2.69
  -6   5 -14   12.67    3.28
   6  -5  13   28.03    3.79
  -6   5 -13   26.58    3.93
   6  -5  12   29.34    3.64
  -6   5 -12   30.66    4.08
   6  -5  11   90.51    5.02
  -6   5 -11  102.01    5.61
   6  -5  10  405.65    9.32
  -6   5 -10  433.90    9.83
   6  -5   9  589.07   10.70
  -6   5  -9  633.34   11.29
   6  -5   8  269.20    7.06
  -6   5  -8  314.34    5.90
  -6   5  -8  289.22    7.43
   6  -5   7   43.47    3.13
  -6   5  -7   45.80    2.69
  -6   5  -7   42.74    3.28
   6  -5   6   88.83    4.00
  -6   5  -6  101.80    3.64
  -6   5  -6   87.38    3.93
   6  -5   5  160.34    5.02
  -6   5  -5  182.77    4.73
  -6   5  -5  163.91    4.88
  -6   5  -5  172.57    3.20
  -6   5  -5  187.50    3.35
   6  -5   4  257.40    5.97
  -6   5  -4  274.29    5.68
  -6   5  -4  264.03    5.75
  -6   5  -4  287.33    4.44
  -6   5  -4  261.91    4.22
   6  -5   3  809.77   10.12
   6  -5   3  388.54    5.75
   6  -5   3  769.36    8.08
  -6   5  -3  881.57    9.98
  -6   5  -3  841.74    9.39
  -6   5  -3  906.84    8.16
  -6   5  -3  811.01    7.72
   6  -5   2  635.75    8.74
   6  -5   2  619.00    7.14
   6  -5   2  723.05    7.65
   6  -5   2  610.04    6.99
  -6   5  -2  688.03    8.88
  -6   5  -2  631.60    7.65
  -6   5  -2  698.66    7.35
  -6   5  -2  615.43    6.84
   6  -5   1  177.09    4.66
   6  -5   1  181.67    4.08
   6  -5   1  192.74    3.93
   6  -5   1  149.34    3.42
  -6   5  -1  178.83    4.81
  -6   5  -1  164.49    3.79
  -6   5  -1  184.08    3.93
  -6   5  -1  167.26    3.71
   6  -5   0  577.06    7.94
   6  -5   0  568.03    7.21
   6  -5   0  587.40    6.41
   6  -5   0  551.79    6.19
  -6   5   0  565.41    8.23
  -6   5   0  539.63    5.97
  -6   5   0  592.42    6.84
  -6   5   0  357.96    5.32
   6  -5  -1   59.93    2.84
   6  -5  -1   59.20    2.77
   6  -5  -1   57.89    2.11
   6  -5  -1   56.87    2.04
  -6   5   1   57.60    2.99
  -6   5   1   54.32    1.97
   6  -5  -2  101.43    3.50
   6  -5  -2   97.13    3.50
   6  -5  -2  104.49    2.33
   6  -5  -2  103.98    2.33
  -6   5   2  100.34    3.79
  -6   5   2   96.26    2.11
   6  -5  -3  101.21    3.50
   6  -5  -3   89.20    3.50
  -6   5   3   92.62    3.71
   6  -5  -4  482.91    7.21
   6  -5  -4  477.30    7.86
  -6   5   4  473.00    7.79
   6  -5  -5  103.25    3.64
   6  -5  -5   98.52    4.08
  -6   5   5  100.92    3.86
   6  -5  -6  155.46    4.44
   6  -5  -6  148.03    4.73
   6  -5  -6  160.63    5.24
  -6   5   6  154.44    4.73
   6  -5  -7  409.29    7.86
   6  -5  -7  408.05    8.37
  -6   5   7  408.56    7.43
   6  -5  -8   76.31    4.08
   6  -5  -8   80.24    4.51
  -6   5   8   75.80    3.64
   6  -5  -9   25.78    3.20
   6  -5  -9   26.14    3.35
  -6   5   9   22.28    2.55
   6  -5 -10  104.27    5.17
   6  -5 -10  117.16    5.75
  -6   5  10  107.55    4.22
  -6   5  10  106.38    5.32
   6  -5 -11   78.06    4.88
   6  -5 -11   82.28    5.39
  -6   5  11   76.24    5.02
   6  -5 -12   58.32    4.73
   6  -5 -12   58.11    5.24
  -6   5  12   54.76    4.81
  -6   5  12   57.45    4.30
   6  -5 -13   18.20    3.35
   6  -5 -13   16.97    3.50
  -6   5  13   15.66    3.35
  -6   5  13   17.33    3.06
   6  -5 -14  101.07    6.12
  -6   5  14  117.67    6.77
  -6   5  14  111.92    5.90
   6  -5 -15   17.33    3.64
  -6   5  15   16.89    3.71
   6  -5 -16   31.31    4.66
   7  -5  16   15.15    3.50
   7  -5  15   17.77    3.57
  -7   5 -15   23.01    4.22
   7  -5  14   49.22    4.81
  -7   5 -14   50.02    5.32
   7  -5  13   62.77    4.95
  -7   5 -13   72.52    5.68
   7  -5  12   14.71    2.99
  -7   5 -12   15.87    3.28
   7  -5  11   18.79    2.99
  -7   5 -11   22.57    3.57
   7  -5  10  196.24    6.99
  -7   5 -10  205.56    7.28
   7  -5   9  189.03    6.63
  -7   5  -9  182.77    6.70
   7  -5   8  290.31    7.72
  -7   5  -8  333.35    6.48
  -7   5  -8  312.30    8.01
   7  -5   7   98.08    4.59
  -7   5  -7  102.16    3.93
  -7   5  -7   91.46    4.51
   7  -5   6  154.95    5.39
  -7   5  -6  177.30    4.95
  -7   5  -6  153.57    5.24
  -7   5  -6  170.39    3.28
  -7   5  -6  177.09    3.42
   7  -5   5  111.33    4.51
  -7   5  -5  117.52    4.15
  -7   5  -5  108.42    4.30
  -7   5  -5  120.07    3.20
   7  -5   4  296.72    6.77
  -7   5  -4  306.91    6.41
  -7   5  -4  293.15    6.33
  -7   5  -4  325.55    5.24
  -7   5  -4  315.65    5.17
   7  -5   3  145.19    4.73
   7  -5   3  149.63    4.37
  -7   5  -3  160.12    4.81
  -7   5  -3  146.65    4.37
  -7   5  -3  158.23    3.86
  -7   5  -3  140.39    3.57
   7  -5   2   12.45    1.89
   7  -5   2   13.18    1.75
   7  -5   2   11.50    1.53
   7  -5   2    8.52    1.17
  -7   5  -2   12.09    1.89
  -7   5  -2   12.09    1.67
  -7   5  -2   10.85    1.46
  -7   5  -2   11.36    1.53
   7  -5   1  318.49    6.41
   7  -5   1  318.93    5.97
   7  -5   1  333.05    5.32
   7  -5   1  283.61    4.88
  -7   5  -1  320.82    6.70
  -7   5  -1  298.25    5.32
  -7   5  -1  332.91    5.53
  -7   5  -1  287.91    5.10
   7  -5   0   36.55    2.55
   7  -5   0   32.40    2.40
   7  -5   0   36.55    1.97
   7  -5   0   33.13    1.75
  -7   5   0   37.28    2.91
  -7   5   0   36.99    2.11
  -7   5   0   30.36    2.40
   7  -5  -1   47.26    2.77
   7  -5  -1   46.31    2.77
   7  -5  -1   45.80    1.89
   7  -5  -1   48.71    1.97
  -7   5   1   44.49    3.06
   7  -5  -2  140.75    4.22
   7  -5  -2  136.31    4.44
   7  -5  -2  132.30    2.48
   7  -5  -2  138.93    2.55
  -7   5   2  133.03    4.59
   7  -5  -3   89.13    3.42
   7  -5  -3   87.74    3.86
  -7   5   3   83.66    3.86
   7  -5  -4  594.53    8.16
   7  -5  -4  572.76    9.17
  -7   5   4  573.05    9.10
   7  -5  -5  189.68    4.81
   7  -5  -5  173.23    5.53
  -7   5   5  178.25    5.39
   7  -5  -6  334.07    6.33
   7  -5  -6  314.34    6.77
   7  -5  -6  315.29    7.50
  -7   5   6  321.04    7.06
   7  -5  -7  180.22    5.53
   7  -5  -7  181.89    6.12
  -7   5   7  179.20    5.53
   7  -5  -8   29.64    3.13
   7  -5  -8   28.25    3.50
  -7   5   8   27.60    2.99
   7  -5  -9  142.06    5.53
   7  -5  -9  139.08    6.12
  -7   5   9  143.74    5.10
   7  -5 -10  166.60    6.19
   7  -5 -10  169.59    6.99
  -7   5  10  169.44    5.53
   7  -5 -11   80.82    4.95
   7  -5 -11   82.14    5.61
  -7   5  11   75.44    5.17
   7  -5 -12    8.16    2.55
   7  -5 -12   11.00    3.20
  -7   5  12    9.25    2.99
   7  -5 -13    7.72    2.69
   7  -5 -13    8.81    3.13
  -7   5  13   11.14    3.28
  -7   5  13    4.30    2.18
   7  -5 -14   23.96    3.79
   7  -5 -14   22.65    4.00
  -7   5  14   21.99    3.93
  -7   5  14   25.27    3.64
   7  -5 -15    0.00    2.40
   7  -5 -15    2.62    2.84
  -7   5  15   -0.51    2.48
   7  -5 -16   51.04    5.53
   8  -5  15   42.60    5.02
  -8   5 -15   42.96    8.30
   8  -5  14  103.91    6.55
  -8   5 -14  111.70    7.06
   8  -5  13    9.76    2.91
  -8   5 -13   13.76    3.50
   8  -5  12    1.02    1.97
  -8   5 -12    1.89    2.48
   8  -5  11   47.91    4.44
  -8   5 -11   53.01    5.02
   8  -5  10  123.86    5.97
  -8   5 -10  131.43    6.33
   8  -5   9   48.42    4.08
  -8   5  -9   45.87    4.22
   8  -5   8   69.39    4.44
  -8   5  -8   82.43    3.86
  -8   5  -8   68.74    4.59
   8  -5   7   12.67    2.48
  -8   5  -7   16.46    2.40
  -8   5  -7   17.33    2.84
  -8   5  -7   16.02    1.46
  -8   5  -7   15.87    1.53
   8  -5   6   47.33    3.64
  -8   5  -6   54.39    3.42
  -8   5  -6   50.75    3.64
  -8   5  -6   54.17    2.40
  -8   5  -6   58.11    2.48
   8  -5   5   42.52    3.35
  -8   5  -5   40.78    3.13
  -8   5  -5   41.14    3.20
  -8   5  -5   42.45    2.33
   8  -5   4  123.71    4.81
  -8   5  -4  130.85    4.73
  -8   5  -4  117.38    4.44
  -8   5  -4  140.97    3.93
  -8   5  -4  113.81    3.50
   8  -5   3  131.14    4.81
  -8   5  -3  144.10    4.95
  -8   5  -3  142.43    4.00
  -8   5  -3  141.70    5.24
   8  -5   2   99.32    4.15
   8  -5   2   97.94    3.93
   8  -5   2  103.47    3.42
   8  -5   2   93.93    3.13
  -8   5  -2  103.83    4.37
   8  -5   1   13.76    2.04
   8  -5   1   12.31    1.89
   8  -5   1   14.05    1.67
   8  -5   1   12.82    1.46
  -8   5  -1   10.85    2.11
   8  -5   0  118.98    4.22
   8  -5   0  111.63    4.22
   8  -5   0  123.13    3.28
   8  -5   0  110.75    3.06
  -8   5   0  122.18    4.73
   8  -5  -1  369.61    6.92
   8  -5  -1  357.67    7.21
   8  -5  -1  355.63    4.73
   8  -5  -1  374.92    4.81
  -8   5   1  381.70    7.86
   8  -5  -2   33.71    2.55
   8  -5  -2   32.55    2.91
  -8   5   2   36.04    3.13
   8  -5  -3  278.01    5.83
   8  -5  -3  269.12    6.63
  -8   5   3  267.01    6.77
   8  -5  -4   67.21    3.20
   8  -5  -4   63.79    3.86
  -8   5   4   66.70    3.93
   8  -5  -5   55.63    2.99
   8  -5  -5   49.81    3.71
  -8   5   5   53.74    3.71
   8  -5  -6  368.01    6.70
   8  -5  -6  348.20    7.14
   8  -5  -6  354.39    8.37
  -8   5   6  339.24    7.79
   8  -5  -7  336.19    7.35
   8  -5  -7  370.12    8.88
  -8   5   7  350.82    7.94
   8  -5  -8  110.31    4.88
   8  -5  -8  105.29    5.53
  -8   5   8  103.91    4.88
   8  -5  -9  156.41    5.75
   8  -5  -9  162.38    6.77
  -8   5   9  155.68    5.75
   8  -5 -10   52.57    4.15
   8  -5 -10   57.81    5.10
  -8   5  10   56.14    4.08
   8  -5 -11    9.98    2.55
   8  -5 -11   11.58    3.20
   8  -5 -12   58.18    4.66
   8  -5 -12   69.39    5.75
   8  -5 -13   19.44    3.50
   8  -5 -13   24.54    4.30
  -8   5  13   22.94    4.15
   8  -5 -14   -2.26    2.40
  -8   5  14   -0.87    2.40
   8  -5 -15   12.82    4.00
  -8   5  15    9.03    3.71
   9  -5  14   23.01    4.00
  -9   5 -14   26.07    4.59
   9  -5  13   11.21    3.20
  -9   5 -13    9.83    3.42
   9  -5  12    2.84    2.33
  -9   5 -12    5.46    2.91
   9  -5  11    1.46    2.11
  -9   5 -11    0.29    2.33
   9  -5  10   21.77    3.64
  -9   5 -10   21.19    3.86
   9  -5   9    2.18    1.97
  -9   5  -9    2.77    2.11
   9  -5   8   40.34    3.93
  -9   5  -8   39.32    3.35
  -9   5  -8   31.16    3.79
  -9   5  -8   39.83    1.75
  -9   5  -8   41.07    1.89
   9  -5   7   97.35    5.17
  -9   5  -7  100.48    4.59
  -9   5  -7   93.71    5.10
  -9   5  -7  100.99    3.13
  -9   5  -7  100.48    3.20
   9  -5   6  205.77    6.77
  -9   5  -6  218.37    6.33
  -9   5  -6  192.96    6.48
  -9   5  -6  210.94    4.73
  -9   5  -6  213.35    4.81
   9  -5   5  136.82    5.53
  -9   5  -5  153.64    5.53
  -9   5  -5  138.20    5.39
  -9   5  -5  146.65    4.22
   9  -5   4  218.66    6.55
  -9   5  -4  232.64    6.63
   9  -5   3  103.47    4.66
  -9   5  -3  102.81    4.73
   9  -5   2   93.57    4.37
   9  -5   2   88.54    4.22
   9  -5   2  102.16    3.57
   9  -5   2   78.64    3.06
  -9   5  -2   97.72    4.66
   9  -5   1  500.75    8.74
   9  -5   1  480.94    8.81
   9  -5   1  475.19    6.77
   9  -5   1  484.73    6.77
  -9   5  -1  512.25    9.61
   9  -5   0   58.18    3.42
   9  -5   0   53.74    3.57
   9  -5   0   50.61    2.33
   9  -5   0   53.81    2.33
  -9   5   0   57.67    3.93
   9  -5  -1  331.60    6.84
   9  -5  -1  325.85    7.50
   9  -5  -1  325.92    4.44
   9  -5  -1  326.21    4.44
  -9   5   1  347.55    8.08
   9  -5  -2   79.30    3.57
   9  -5  -2   74.05    4.15
  -9   5   2   75.51    4.37
   9  -5  -3   32.04    2.62
   9  -5  -3   30.80    3.28
  -9   5   3   27.38    3.28
   9  -5  -4   19.37    2.26
   9  -5  -4   19.08    2.84
  -9   5   4   18.20    2.77
   9  -5  -5   35.39    2.69
   9  -5  -5   32.04    3.71
  -9   5   5   34.00    3.57
   9  -5  -6  264.75    6.41
   9  -5  -6  255.65    7.72
  -9   5   6  255.14    7.35
   9  -5  -7  249.39    6.41
   9  -5  -7  248.66    7.94
  -9   5   7  239.71    7.21
   9  -5  -8  173.08    5.75
   9  -5  -8  173.81    7.14
  -9   5   8  175.05    6.41
   9  -5  -9   59.42    5.10
  -9   5   9   55.78    4.37
   9  -5 -10   13.98    3.35
  -9   5  10   11.87    2.62
   9  -5 -11   -0.95    2.40
   9  -5 -12   15.66    3.86
   9  -5 -13    5.02    3.35
   9  -5 -14   27.01    4.73
  -9   5  14   22.94    4.30
  10  -5  13   43.62    5.32
 -10   5 -13   52.14    5.83
  10  -5  12   11.50    3.35
 -10   5 -12   12.23    3.57
  10  -5  11   14.20    3.35
 -10   5 -11   15.66    3.71
  10  -5  10    9.90    3.06
 -10   5 -10   12.31    3.28
  10  -5   9   -0.07    1.97
 -10   5  -9    2.69    2.26
  10  -5   8   14.85    2.99
 -10   5  -8   14.49    3.13
 -10   5  -8   15.51    1.67
 -10   5  -8   16.97    1.82
  10  -5   7   32.18    3.86
 -10   5  -7   34.51    3.57
 -10   5  -7   35.24    3.93
 -10   5  -7   35.46    2.40
 -10   5  -7   33.79    2.48
  10  -5   6   45.87    4.15
 -10   5  -6   50.68    3.93
 -10   5  -6   49.44    4.15
 -10   5  -6   52.06    3.86
  10  -5   5    5.02    2.11
 -10   5  -5    4.37    2.11
  10  -5   4    7.35    2.18
 -10   5  -4    8.01    2.26
  10  -5   3   76.31    4.44
 -10   5  -3   76.38    4.66
  10  -5   2  222.09    6.55
  10  -5   2  212.55    6.55
  10  -5   2  216.77    5.39
  10  -5   2  188.59    4.73
 -10   5  -2  223.40    7.06
  10  -5   1   73.11    4.08
  10  -5   1   68.52    4.30
  10  -5   1   70.12    2.91
  10  -5   1   66.99    2.84
 -10   5  -1   75.00    4.66
  10  -5   0   82.06    4.08
  10  -5   0   81.63    4.59
  10  -5   0   77.62    2.77
  10  -5   0   78.28    2.77
 -10   5   0   73.98    4.73
  10  -5  -1  148.32    5.02
  10  -5  -1  145.85    5.83
  10  -5  -1  143.66    2.77
  10  -5  -1  146.43    2.84
 -10   5   1  152.11    6.19
  10  -5  -2   21.70    2.69
  10  -5  -2   18.13    2.91
 -10   5   2   17.18    2.99
  10  -5  -3   59.71    3.42
  10  -5  -3   61.16    4.44
 -10   5   3   60.73    4.51
  10  -5  -4   99.68    5.39
 -10   5   4  103.11    5.39
  10  -5  -5  200.17    7.28
 -10   5   5  206.65    7.14
  10  -5  -6    1.89    2.33
 -10   5   6    5.32    2.26
  10  -5  -7   84.54    5.61
 -10   5   7   88.69    5.32
  10  -5  -8   72.23    5.46
 -10   5   8   59.71    4.66
  10  -5  -9   88.91    6.04
 -10   5   9   81.26    5.24
  10  -5 -10   16.38    3.64
 -10   5  10   10.49    2.84
  10  -5 -11    3.35    2.84
  10  -5 -12    0.51    2.91
  10  -5 -13   12.96    4.08
  11  -5  12    2.11    2.91
 -11   5 -12    4.81    3.35
  11  -5  11    3.35    2.69
 -11   5 -11    3.71    3.06
  11  -5  10    3.28    2.55
 -11   5 -10    1.38    2.55
  11  -5   9   14.13    3.35
 -11   5  -9   18.49    3.57
  11  -5   8   20.53    3.64
 -11   5  -8   21.70    3.64
 -11   5  -8   19.81    2.04
 -11   5  -8   19.81    2.18
  11  -5   7    0.51    2.04
 -11   5  -7    0.80    1.97
 -11   5  -7    0.80    2.11
 -11   5  -7    1.53    1.97
  11  -5   6   27.52    3.79
 -11   5  -6   28.25    3.64
  11  -5   5  132.01    6.04
 -11   5  -5  140.90    6.19
  11  -5   4   18.93    3.06
 -11   5  -4   21.92    3.28
  11  -5   3   47.48    4.00
 -11   5  -3   46.60    4.37
  11  -5   2    9.03    2.33
  11  -5   2   10.63    2.62
  11  -5   2    5.53    1.53
  11  -5   2    6.26    1.46
 -11   5  -2   10.49    2.77
  11  -5   1   16.75    2.62
  11  -5   1   13.98    2.84
  11  -5   1   15.00    1.82
  11  -5   1   13.54    1.75
 -11   5  -1   13.76    2.84
  11  -5   0    1.09    1.53
  11  -5   0    3.64    2.04
  11  -5   0    1.53    0.95
  11  -5   0    1.53    1.02
 -11   5   0    2.26    2.26
  11  -5  -1   62.77    3.86
  11  -5  -1   65.17    4.59
 -11   5   1   62.04    4.88
  11  -5  -2   93.49    5.39
 -11   5   2   98.37    5.75
  11  -5  -3  275.97    8.45
 -11   5   3  282.30    8.66
  11  -5  -4   64.59    5.17
 -11   5   4   67.86    5.17
  11  -5  -5   63.13    5.24
 -11   5   5   67.43    5.10
  11  -5  -6    5.90    2.84
 -11   5   6    9.39    2.77
  11  -5  -7    2.40    2.62
 -11   5   7    7.06    2.62
  11  -5  -8   46.60    5.46
 -11   5   8   42.31    4.73
  11  -5  -9    3.20    2.91
 -11   5   9    1.24    2.48
  11  -5 -10    7.50    3.35
 -11   5  10    6.04    2.77
  11  -5 -11    3.28    3.06
  11  -5 -12   11.87    5.24
  12  -5  10   55.56    5.75
 -12   5 -10   58.91    5.90
  12  -5   9    3.13    2.62
 -12   5  -9    2.11    2.62
 -12   5  -9    4.59    1.24
 -12   5  -9    2.91    1.24
  12  -5   8   39.68    4.88
 -12   5  -8   41.14    4.95
 -12   5  -8   37.94    2.69
 -12   5  -8   38.66    2.84
  12  -5   7   17.91    3.71
 -12   5  -7   16.75    3.35
 -12   5  -7   17.18    3.50
  12  -5   6   46.67    4.66
 -12   5  -6   48.13    4.73
  12  -5   5  158.44    6.84
 -12   5  -5  163.61    6.99
  12  -5   4   26.87    3.71
 -12   5  -4   25.63    3.79
  12  -5   3    6.33    2.40
  12  -5   3    4.08    2.33
 -12   5  -3    5.46    2.62
  12  -5   2   13.03    2.69
  12  -5   2   12.31    2.91
  12  -5   2   13.18    1.89
  12  -5   2   11.00    1.75
 -12   5  -2   13.33    3.06
  12  -5   1    1.75    1.82
  12  -5   1    0.00    2.04
  12  -5   1    0.87    1.09
  12  -5   1    0.15    1.17
 -12   5  -1    1.60    2.18
  12  -5   0   37.14    4.30
 -12   5   0   40.85    4.73
  12  -5  -1    1.60    2.33
 -12   5   1    5.17    2.69
  12  -5  -2  169.22    7.28
 -12   5   2  175.63    7.57
  12  -5  -3   37.79    4.66
 -12   5   3   42.60    4.88
  12  -5  -4  137.98    7.06
 -12   5   4  134.56    6.92
  12  -5  -5  126.62    6.92
 -12   5   5  122.77    6.77
  12  -5  -6  117.89    6.92
 -12   5   6  122.26    6.84
  12  -5  -7   12.09    3.64
 -12   5   7   14.85    3.35
  12  -5  -8   14.13    3.79
 -12   5   8   11.29    3.28
  12  -5  -9  103.18    7.21
 -12   5   9   99.10    6.48
  12  -5 -10   12.23    3.93
 -12   5  10   12.74    3.50
  13  -5   9   66.55    6.19
 -13   5  -9   57.60    6.48
 -13   5  -9   62.26    3.06
 -13   5  -9   63.49    3.13
  13  -5   8   12.74    3.50
 -13   5  -8   11.65    3.42
  13  -5   7   10.27    3.28
 -13   5  -7   12.96    4.08
  13  -5   6   52.65    5.10
 -13   5  -6   55.27    5.32
  13  -5   5   11.58    3.06
 -13   5  -5    8.66    2.99
  13  -5   4   27.23    3.86
  13  -5   4   33.49    4.44
 -13   5  -4   32.55    4.37
  13  -5   3   24.61    3.64
  13  -5   3   21.77    3.79
 -13   5  -3   30.95    4.37
  13  -5   2   82.14    5.75
  13  -5   2   85.70    3.35
  13  -5   2   83.23    3.28
 -13   5  -2   97.57    6.41
  13  -5   1   31.53    4.30
 -13   5  -1   34.66    4.59
  13  -5   0   12.45    3.20
 -13   5   0   11.07    3.28
  13  -5  -1   10.27    3.20
 -13   5   1   12.38    3.57
  13  -5  -2   14.93    3.64
 -13   5   2   20.02    3.93
  13  -5  -3  176.07    8.16
 -13   5   3  177.67    8.16
  13  -5  -4    9.90    3.35
 -13   5   4   10.34    3.35
  13  -5  -5    4.37    2.91
 -13   5   5    4.08    2.84
  13  -5  -6    6.77    3.20
 -13   5   6    4.51    2.99
  13  -5  -7   35.75    5.39
 -13   5   7   32.33    4.73
  13  -5  -8   10.41    3.71
 -13   5   8   10.56    3.57
 -13   5   9   21.99    4.22
 -13   5  10   27.96    4.59
  14  -5   7   62.62    5.97
  14  -5   6   19.59    3.93
 -14   5  -6   24.39    4.30
  14  -5   5    1.38    2.62
 -14   5  -5    2.55    2.77
  14  -5   4    2.04    2.69
 -14   5  -4    5.32    2.99
  14  -5   3   40.41    5.02
  14  -5   3   40.41    2.84
  14  -5   3   35.39    2.69
 -14   5  -3   46.82    5.61
  14  -5   2   11.07    3.50
 -14   5  -2   16.38    3.79
  14  -5   1   19.44    3.93
 -14   5  -1   16.89    4.00
  14  -5   0   42.16    5.24
 -14   5   0   46.16    5.61
  14  -5  -1   46.97    5.68
 -14   5   1   51.04    5.97
  14  -5  -2   31.67    4.81
 -14   5   2   32.48    4.88
  14  -5  -3   18.28    4.22
 -14   5   3   19.81    4.30
  14  -5  -4    7.28    3.57
 -14   5   4   15.44    3.93
  14  -5  -5   10.12    3.71
 -14   5   5   10.92    3.50
 -14   5   6   25.49    4.95
  15  -5   4   21.99    3.13
  15  -5   4   20.53    2.99
  -9  -6   4   77.98    6.33
  -9  -6   3   31.38    4.73
   9   6  -3   32.55    4.95
  -9  -6   2   38.01    5.10
   9   6  -2   36.92    4.95
  -9  -6   1   61.82    5.97
   9   6  -1   58.76    5.68
  -9  -6   0    4.66    3.20
   9   6   0    6.04    3.50
   9   6   1    8.16    3.28
   9   6   2    4.30    2.91
   9   6   3   17.18    4.30
   8   6  -6   30.44    4.88
  -8  -6   5   87.74    6.26
   8   6  -5   82.79    6.48
  -8  -6   4   29.05    4.30
   8   6  -4   32.55    4.73
  -8  -6   3   20.53    3.86
   8   6  -3   17.40    3.71
  -8  -6   2   49.51    5.24
   8   6  -2   41.65    4.95
  -8  -6   1    1.38    2.62
   8   6  -1    1.38    2.55
  -8  -6   0   11.36    3.35
   8   6   0    6.84    2.77
   8   6   0    8.08    2.84
  -8  -6  -1   10.34    3.28
   8   6   1    5.39    2.55
  -8  -6  -2   14.34    3.64
   8   6   2   10.85    3.06
  -8  -6  -3   18.64    3.93
   8   6   3   16.38    3.50
  -8  -6  -4   16.24    3.71
   8   6   4   16.97    3.64
   8   6   4   15.36    2.11
   8   6   4   12.96    1.75
  -8  -6  -5    4.00    2.99
   8   6   5    4.30    2.84
  -8  -6  -6   19.88    5.24
   8   6   6   24.61    4.51
   7   6  -8    6.41    3.35
   7   6  -7   10.85    3.50
  -7  -6   6   11.43    3.06
   7   6  -6   12.52    3.42
  -7  -6   5    0.80    2.33
   7   6  -5    0.51    2.40
  -7  -6   4   59.05    5.24
   7   6  -4   61.53    5.46
  -7  -6   3    7.57    2.84
   7   6  -3    6.12    2.77
   7   6  -3   10.34    2.77
  -7  -6   2   35.17    4.44
   7   6  -2   38.81    4.51
  -7  -6   1   82.50    5.75
   7   6  -1   76.53    5.10
   7   6  -1   82.72    5.61
  -7  -6   0   46.24    4.88
   7   6   0   46.75    4.44
   7   6   0   50.53    4.59
  -7  -6  -1    0.73    2.26
   7   6   1    1.53    2.11
   7   6   1    2.91    2.11
  -7  -6  -2   29.13    4.22
   7   6   2   35.75    4.30
  -7  -6  -3    8.37    2.91
   7   6   3    3.71    2.40
   7   6   3    3.79    1.31
   7   6   3    3.35    1.09
  -7  -6  -4   39.76    4.81
   7   6   4   44.64    4.73
   7   6   4   44.13    3.35
   7   6   4   38.23    2.62
  -7  -6  -5   67.57    5.68
   7   6   5   75.87    5.75
  -7  -6  -6   29.05    4.44
   7   6   6   29.56    4.30
  -7  -6  -7   44.34    5.39
   7   6   7   35.90    4.81
  -7  -6  -8    1.67    2.55
   7   6   8    2.69    2.69
  -7  -6  -9   26.72    4.88
  -7  -6 -10   46.09    2.99
  -7  -6 -10   46.31    2.91
   6   6 -10   12.09    3.71
   6   6  -9   33.71    4.73
   6   6  -8   28.18    4.44
  -6  -6   7   11.36    2.91
   6   6  -7   11.00    3.20
  -6  -6   6    5.02    2.40
   6   6  -6    4.95    2.69
  -6  -6   5    7.72    2.69
   6   6  -5    4.44    2.55
  -6  -6   4   16.09    3.20
   6   6  -4   16.38    3.20
  -6  -6   3   39.90    4.37
   6   6  -3   33.57    4.08
  -6  -6   2   52.79    4.66
   6   6  -2   52.94    4.08
   6   6  -2   54.10    4.44
  -6  -6   1   68.59    5.02
   6   6  -1   65.39    4.44
   6   6  -1   67.79    4.66
  -6  -6   0   14.64    3.06
   6   6   0   16.02    2.91
   6   6   0   14.27    2.69
  -6  -6  -1   12.31    3.06
   6   6   1    8.45    2.48
   6   6   1    8.96    2.40
  -6  -6  -2   20.39    3.42
   6   6   2   18.71    3.20
   6   6   2   19.88    2.99
   6   6   2   20.02    1.89
   6   6   2   17.48    1.60
  -6  -6  -3  111.63    6.19
   6   6   3  105.22    5.83
   6   6   3  106.46    3.79
   6   6   3  100.56    3.50
  -6  -6  -4   15.51    3.28
   6   6   4   15.00    3.06
  -6  -6  -5    5.83    2.48
   6   6   5    6.41    2.62
  -6  -6  -6    4.95    2.55
   6   6   6    4.15    2.40
  -6  -6  -7   56.43    5.24
   6   6   7   48.93    5.10
  -6  -6  -8   50.82    5.17
   6   6   8   49.95    5.24
  -6  -6  -9   42.60    4.95
  -6  -6  -9   43.62    3.57
   6   6   9   45.73    5.24
  -6  -6 -10    9.10    3.06
  -6  -6 -10   10.12    1.60
  -6  -6 -10    9.83    1.60
   6   6  10   10.41    3.28
  -6  -6 -11   39.61    4.88
   5   6 -12    3.42    3.20
   5   6 -11    4.00    3.06
   5   6 -10   -0.22    2.48
   5   6  -9   18.42    3.71
  -5  -6   8   24.83    3.50
   5   6  -8   17.99    3.57
  -5  -6   7    0.87    2.11
   5   6  -7    1.02    2.26
  -5  -6   6   28.32    3.64
   5   6  -6   25.41    3.71
  -5  -6   5  130.48    5.97
   5   6  -5  117.60    6.12
  -5  -6   4   24.83    3.50
   5   6  -4   23.59    3.50
   5   6  -4   19.73    2.77
  -5  -6   3   44.64    4.15
   5   6  -3   41.43    4.00
  -5  -6   2   12.31    2.84
   5   6  -2    7.57    2.04
   5   6  -2    5.68    2.11
  -5  -6   1   16.97    3.06
   5   6  -1   13.54    2.40
   5   6  -1   15.22    2.77
  -5  -6   0    2.62    1.97
   5   6   0    0.95    1.67
   5   6   0    1.24    1.60
  -5  -6  -1   58.40    4.51
   5   6   1   55.34    4.08
   5   6   1   56.72    3.93
   5   6   1   51.19    2.04
   5   6   1   46.89    1.89
  -5  -6  -2   92.98    5.39
   5   6   2   89.27    4.95
   5   6   2  100.19    4.81
   5   6   2   99.54    3.28
   5   6   2   85.56    2.99
  -5  -6  -3  279.32    8.52
   5   6   3  280.19    8.16
   5   6   3  261.26    6.99
   5   6   3  266.14    5.61
   5   6   3  244.08    5.32
  -5  -6  -4   70.12    5.02
   5   6   4   67.64    4.73
  -5  -6  -5   63.28    4.88
   5   6   5   60.95    4.81
  -5  -6  -6   10.78    2.77
   5   6   6    9.54    2.69
  -5  -6  -7    4.59    2.33
   5   6   7    4.59    2.40
  -5  -6  -8   45.95    4.66
   5   6   8   40.85    4.59
  -5  -6  -9    1.53    2.11
  -5  -6  -9    3.93    1.38
  -5  -6  -9    2.33    1.17
   5   6   9    1.67    2.18
  -5  -6 -10    5.02    2.48
  -5  -6 -10    7.50    1.31
   5   6  10    5.17    2.69
  -5  -6 -11    4.08    2.48
   5   6  11    7.35    2.99
  -5  -6 -12   10.49    3.06
   5   6  12    6.84    3.06
   4   6 -14   12.45    4.37
   4   6 -13   19.15    4.00
   4   6 -12   18.71    3.93
   4   6 -11   18.35    3.86
   4   6 -10   14.34    3.35
  -4  -6   9   23.45    3.35
   4   6  -9   23.96    3.79
  -4  -6   8  115.56    5.53
   4   6  -8  112.64    6.19
  -4  -6   7   78.71    4.88
   4   6  -7   73.62    5.17
  -4  -6   6    2.62    1.97
   4   6  -6    1.67    1.97
  -4  -6   5  142.28    5.90
   4   6  -5  134.93    5.97
  -4  -6   4   53.74    4.15
   4   6  -4   50.39    4.08
   4   6  -4   51.84    3.42
  -4  -6   3  130.56    5.61
   4   6  -3  125.97    4.51
   4   6  -3  127.57    5.61
  -4  -6   2  156.26    5.97
   4   6  -2  145.85    4.88
   4   6  -2  131.79    5.53
  -4  -6   1    7.57    2.18
   4   6  -1    9.17    1.97
   4   6  -1   10.34    2.26
  -4  -6   0  231.41    7.14
   4   6   0  227.84    6.41
   4   6   0  213.64    6.48
  -4  -6  -1  505.41   10.27
   4   6   1  485.60    9.32
   4   6   1  471.48    9.10
   4   6   1  394.22    5.46
   4   6   1  445.55    5.68
  -4  -6  -2  231.04    7.28
   4   6   2  241.02    6.99
   4   6   2  227.62    6.33
   4   6   2  244.37    5.02
   4   6   2  207.67    4.51
  -4  -6  -3   89.85    5.02
   4   6   3   86.07    4.73
   4   6   3   85.12    4.15
   4   6   3   89.13    3.50
   4   6   3   77.91    3.20
  -4  -6  -4   16.97    2.99
   4   6   4   15.73    2.77
   4   6   4   17.69    2.40
  -4  -6  -5  253.61    7.79
   4   6   5  256.45    7.79
  -4  -6  -6   62.69    4.59
   4   6   6   64.95    4.73
  -4  -6  -7   28.62    3.71
  -4  -6  -7   32.26    4.00
   4   6   7   29.34    3.86
  -4  -6  -8   24.32    3.42
  -4  -6  -8   30.22    3.28
  -4  -6  -8   27.45    2.33
  -4  -6  -8   24.54    2.18
   4   6   8   27.67    3.79
  -4  -6  -9   50.24    4.59
  -4  -6  -9   52.28    4.15
  -4  -6  -9   56.43    2.69
  -4  -6  -9   46.75    2.48
   4   6   9   45.07    4.66
  -4  -6 -10   98.08    5.68
  -4  -6 -10   91.38    5.24
   4   6  10   96.77    6.04
  -4  -6 -11   55.78    4.88
  -4  -6 -11   59.78    4.81
   4   6  11   61.46    5.53
  -4  -6 -12   14.13    3.20
  -4  -6 -12   12.52    2.99
   4   6  12   14.93    3.57
  -4  -6 -13    1.09    2.26
   4   6  13    1.67    2.55
  -4  -6 -14    3.79    2.62
   3   6 -15   94.15    7.72
   3   6 -14   22.86    4.30
   3   6 -13   23.45    4.00
   3   6 -12   32.62    4.37
   3   6 -11   73.18    5.83
  -3  -6  10  162.30    6.33
   3   6 -10  150.87    6.92
  -3  -6   9   43.25    4.08
   3   6  -9   49.22    4.66
  -3  -6   8   32.91    3.71
   3   6  -8   39.61    4.22
  -3  -6   7    3.79    2.04
   3   6  -7    3.64    2.11
  -3  -6   6   53.81    3.93
   3   6  -6   44.93    3.86
  -3  -6   5   99.76    4.81
   3   6  -5   85.12    4.66
  -3  -6   4  193.54    6.33
   3   6  -4  172.50    6.19
   3   6  -4  175.63    4.81
  -3  -6   3  292.42    7.50
   3   6  -3  269.71    5.68
   3   6  -3  264.75    7.21
  -3  -6   2   13.98    2.48
   3   6  -2   15.15    2.04
   3   6  -2   15.58    2.55
  -3  -6   1  247.86    6.84
   3   6  -1  261.48    6.04
   3   6  -1  235.99    6.55
  -3  -6   0  106.16    4.73
   3   6   0  111.77    4.37
   3   6   0   96.48    4.37
   3   6   0   97.06    2.40
   3   6   0   95.90    2.33
  -3  -6  -1 1138.02   14.27
  -3  -6  -1 1119.45    9.90
   3   6   1 1120.47   13.03
   3   6   1 1042.27   12.67
   3   6   1 1113.19    9.25
   3   6   1  982.34    8.66
  -3  -6  -2  137.98    5.46
  -3  -6  -2  136.53    3.93
   3   6   2  145.99    5.17
   3   6   2  127.35    4.59
   3   6   2  135.73    3.79
   3   6   2  122.69    3.50
  -3  -6  -3  120.07    5.10
  -3  -6  -3  118.54    3.86
   3   6   3  116.65    4.88
   3   6   3  111.12    4.30
   3   6   3  118.47    3.86
   3   6   3  110.39    3.64
  -3  -6  -4  167.04    6.04
  -3  -6  -4  174.03    4.88
   3   6   4  170.17    5.97
   3   6   4  164.71    4.95
  -3  -6  -5   10.85    2.40
  -3  -6  -5   13.03    2.11
   3   6   5    9.10    2.18
   3   6   5    9.54    1.82
  -3  -6  -6   91.24    4.81
  -3  -6  -6   94.73    4.22
   3   6   6   98.23    5.10
  -3  -6  -7  197.11    6.70
  -3  -6  -7  194.49    6.04
  -3  -6  -7  193.98    4.81
  -3  -6  -7  187.72    4.66
   3   6   7  188.08    6.92
  -3  -6  -8  171.04    6.48
  -3  -6  -8  168.57    5.97
  -3  -6  -8  184.08    4.37
  -3  -6  -8  171.19    4.22
   3   6   8  189.46    7.14
  -3  -6  -9  354.03    9.03
  -3  -6  -9  347.04    8.66
  -3  -6  -9  357.88    5.02
  -3  -6  -9  343.32    4.88
   3   6   9  365.75    9.90
  -3  -6 -10   19.81    3.20
  -3  -6 -10   19.73    3.13
   3   6  10   21.70    3.57
  -3  -6 -11   14.49    2.91
  -3  -6 -11   18.20    3.13
   3   6  11   21.26    3.79
  -3  -6 -12   27.31    3.93
   3   6  12   35.97    4.51
  -3  -6 -13    8.16    2.91
   3   6  13   15.73    3.71
  -3  -6 -14   63.35    5.46
   3   6  14   65.24    5.97
  -2  -6  15    0.80    2.84
  -2  -6  14   32.48    4.66
   2   6 -14   29.78    4.22
  -2  -6  13   67.50    5.61
   2   6 -13   61.82    5.24
  -2  -6  12   13.40    3.28
   2   6 -12   14.56    3.20
  -2  -6  11  193.98    7.72
  -2  -6  11  187.86    6.77
   2   6 -11  183.49    7.28
  -2  -6  10  269.63    8.59
  -2  -6  10  271.82    7.57
   2   6 -10  238.32    7.94
  -2  -6   9  118.40    5.97
  -2  -6   9  118.62    5.32
   2   6  -9   99.17    5.46
  -2  -6   8  548.30   10.12
   2   6  -8  480.50   10.27
  -2  -6   7    8.96    2.26
   2   6  -7    7.65    2.26
  -2  -6   6  214.37    6.41
   2   6  -6  207.16    6.55
  -2  -6   5  342.52    7.79
   2   6  -5  312.96    7.79
  -2  -6   4  327.96    7.57
   2   6  -4  296.21    5.02
   2   6  -4  279.68    7.14
   2   6  -4  282.08    5.24
  -2  -6   3   35.97    3.20
   2   6  -3   30.80    2.18
   2   6  -3   33.42    3.06
  -2  -6   2  375.29    7.94
   2   6  -2  362.54    6.26
   2   6  -2  327.01    7.35
  -2  -6   1   30.36    2.84
   2   6  -1   29.42    2.40
   2   6  -1   26.58    2.69
  -2  -6   0  140.68    5.02
   2   6   0  140.97    4.44
   2   6   0  127.28    4.59
   2   6   0  131.43    2.91
   2   6   0  120.51    2.77
  -2  -6  -1  747.01   10.92
   2   6   1  752.76   10.05
   2   6   1  668.73    9.68
   2   6   1  719.70    7.43
   2   6   1  622.93    6.92
  -2  -6  -2   51.04    3.28
  -2  -6  -2   50.32    2.62
   2   6   2   50.46    3.13
   2   6   2   48.49    2.99
   2   6   2   48.64    2.40
  -2  -6  -3   21.26    2.69
  -2  -6  -3   16.82    1.97
   2   6   3   17.26    2.48
   2   6   3   18.20    2.18
   2   6   3   15.80    1.89
   2   6   3   18.06    1.89
  -2  -6  -4  271.89    6.92
  -2  -6  -4  254.27    5.75
   2   6   4  266.21    6.84
   2   6   4  249.75    5.68
  -2  -6  -5  113.81    4.81
  -2  -6  -5  111.92    4.22
  -2  -6  -5  103.11    3.57
   2   6   5  107.55    4.81
   2   6   5  113.01    3.93
  -2  -6  -6  220.70    6.48
  -2  -6  -6  218.88    5.97
  -2  -6  -6  224.12    4.88
  -2  -6  -6  226.82    4.88
   2   6   6  217.13    6.77
   2   6   6  213.64    5.02
  -2  -6  -7  114.17    5.02
  -2  -6  -7  119.27    4.88
  -2  -6  -7  133.62    3.71
  -2  -6  -7  113.74    3.42
   2   6   7  116.87    5.39
  -2  -6  -8   17.62    2.69
  -2  -6  -8   17.40    2.69
  -2  -6  -8   14.49    1.67
  -2  -6  -8   16.46    1.53
   2   6   8   16.24    2.84
  -2  -6  -9  113.81    5.24
  -2  -6  -9  112.86    5.32
   2   6   9  110.24    5.68
  -2  -6 -10  312.67    8.16
  -2  -6 -10  312.38    8.59
   2   6  10  312.38    9.10
  -2  -6 -11   37.21    3.71
  -2  -6 -11   35.97    3.86
   2   6  11   39.47    4.37
  -2  -6 -12   48.86    4.66
   2   6  12   52.57    5.02
  -2  -6 -13  185.46    7.86
   2   6  13  185.97    8.01
  -2  -6 -14   48.57    5.24
   2   6  14   52.65    5.46
  -2  -6 -15   18.86    3.93
   2   6  15   15.95    3.71
  -1  -6  15   14.78    3.71
   1   6 -15   13.83    3.79
  -1  -6  14    7.86    3.13
   1   6 -14    6.77    3.13
   1   6 -14    5.39    3.20
  -1  -6  13   28.47    4.15
   1   6 -13   23.23    3.86
   1   6 -13   22.79    3.57
  -1  -6  12   34.73    4.37
   1   6 -12   35.75    4.37
   1   6 -12   39.68    4.15
  -1  -6  11    5.90    2.62
  -1  -6  11    4.59    2.11
   1   6 -11    3.79    2.48
   1   6 -11    5.24    2.33
  -1  -6  10  154.73    6.63
  -1  -6  10  160.19    5.90
   1   6 -10  160.63    6.84
   1   6 -10  149.20    6.19
  -1  -6   9  240.80    7.57
  -1  -6   9  242.62    6.92
   1   6  -9  255.58    7.86
   1   6  -9  221.65    7.14
  -1  -6   8  506.35   10.27
  -1  -6   8  519.17    9.61
   1   6  -8  526.67   10.49
   1   6  -8  476.57    9.76
  -1  -6   7  329.12    8.08
  -1  -6   7  336.11    7.72
   1   6  -7  297.59    7.65
  -1  -6   6   25.99    2.04
  -1  -6   6   28.25    3.13
  -1  -6   6   30.73    3.06
   1   6  -6   24.17    2.99
  -1  -6   5  588.05    7.06
  -1  -6   5  584.48    9.61
   1   6  -5  533.95    9.47
  -1  -6   4 1060.84    9.54
  -1  -6   4 1100.81   12.89
   1   6  -4 1002.81    8.01
   1   6  -4  999.67   12.60
   1   6  -4  984.31    8.08
  -1  -6   3  387.67    5.97
  -1  -6   3  394.29    7.72
   1   6  -3  372.52    5.39
   1   6  -3  336.70    7.28
  -1  -6   2  771.40   10.56
   1   6  -2  761.50    8.16
   1   6  -2  710.02   10.12
  -1  -6   1  599.56    9.32
   1   6  -1  584.92    7.57
   1   6  -1  562.42    8.81
   1   6  -1  521.86    4.51
   1   6  -1  524.27    4.51
  -1  -6   0  414.39    7.79
   1   6   0  391.09    6.63
   1   6   0  365.68    7.06
   1   6   0  356.65    4.73
   1   6   0  314.12    4.44
  -1  -6  -1  103.76    4.15
   1   6   1   96.26    3.64
   1   6   1   87.01    3.57
   1   6   1   92.04    2.84
   1   6   1   96.19    2.91
  -1  -6  -2   45.65    2.99
   1   6   2   49.51    2.99
   1   6   2   41.29    2.62
   1   6   2   46.97    2.26
   1   6   2   45.00    2.26
  -1  -6  -3  472.71    8.30
  -1  -6  -3  476.06    7.35
  -1  -6  -3  526.01    8.96
  -1  -6  -3  460.34    6.70
   1   6   3  493.03    8.37
   1   6   3  463.68    7.43
   1   6   3  532.79    7.14
   1   6   3  460.12    6.70
  -1  -6  -4  333.35    7.06
  -1  -6  -4  327.08    6.48
  -1  -6  -4  341.28    5.83
  -1  -6  -4  295.26    5.39
   1   6   4  329.85    7.21
   1   6   4  324.83    6.19
  -1  -6  -5  194.56    5.61
  -1  -6  -5  185.97    5.17
  -1  -6  -5  197.76    4.44
  -1  -6  -5  182.62    4.22
   1   6   5  192.74    5.90
   1   6   5  187.35    4.66
  -1  -6  -6  577.86    9.39
  -1  -6  -6  555.58    9.17
  -1  -6  -6  576.62    7.06
  -1  -6  -6  561.26    6.99
   1   6   6  590.82   10.27
   1   6   6  547.79    7.57
  -1  -6  -7  316.82    7.21
  -1  -6  -7  309.90    7.35
  -1  -6  -7  375.58    5.32
  -1  -6  -7  310.99    4.88
   1   6   7  327.30    8.08
   1   6   7  306.62    5.68
  -1  -6  -8   58.03    3.64
  -1  -6  -8   61.31    3.93
  -1  -6  -8   60.87    1.97
  -1  -6  -8   55.78    1.82
   1   6   8   58.32    4.15
  -1  -6  -9  154.95    5.39
  -1  -6  -9  152.33    5.90
   1   6   9  155.02    6.26
  -1  -6 -10    2.69    1.60
  -1  -6 -10    3.93    1.97
   1   6  10    5.32    2.18
  -1  -6 -11  170.31    6.84
   1   6  11  188.44    7.28
  -1  -6 -12   21.70    3.50
   1   6  12   24.61    3.64
  -1  -6 -13  104.56    6.19
   1   6  13   97.50    6.04
  -1  -6 -14    7.28    2.77
   1   6  14    6.63    2.62
  -1  -6 -15   40.92    5.10
   1   6  15   45.00    5.02
   1   6  16   58.62    5.83
   0  -6  16   13.40    3.71
   0   6 -16   19.59    4.15
   0  -6  15   26.07    4.44
   0   6 -15   24.90    4.22
   0  -6  14    1.60    2.62
   0   6 -14   -0.58    2.48
   0  -6  13   58.83    5.17
   0   6 -13   62.11    5.46
   0   6 -13   57.31    4.66
   0  -6  12   63.42    5.10
   0   6 -12   63.57    5.24
   0   6 -12   59.13    4.37
   0  -6  11  148.76    6.63
   0   6 -11  156.62    6.77
   0   6 -11  144.54    6.04
   0  -6  10   84.17    5.10
   0   6 -10   89.56    5.32
   0   6 -10   76.60    4.66
   0  -6   9   87.23    4.88
   0   6  -9   96.19    5.17
   0   6  -9   98.96    4.81
   0  -6   8   53.74    2.84
   0  -6   8   49.08    3.86
   0   6  -8   57.16    4.08
   0   6  -8   50.39    3.64
   0  -6   7  326.06    5.75
   0  -6   7  353.95    8.08
   0   6  -7  339.17    8.01
   0   6  -7  311.14    7.43
   0  -6   6  226.24    4.73
   0  -6   6  247.93    6.63
   0  -6   6  251.28    6.41
   0   6  -6  237.74    6.48
   0   6  -6  236.28    6.33
   0  -6   5  106.31    3.35
   0  -6   5  101.87    4.30
   0  -6   5  105.65    4.30
   0   6  -5  109.37    4.44
   0   6  -5   96.26    4.15
   0  -6   4   84.25    2.99
   0  -6   4   88.25    3.93
   0  -6   4   88.18    3.86
   0   6  -4   88.47    2.26
   0   6  -4   78.49    3.79
   0   6  -4   80.53    1.97
   0  -6   2  142.21    3.86
   0  -6   2  146.58    4.59
   0   6  -2  145.34    3.42
   0   6  -2  127.06    4.30
   0  -6   1 1041.98   10.12
   0  -6   1 1078.82   11.72
   0   6  -1 1040.23    9.39
   0   6  -1  969.82   11.07
   0   6  -1  875.60    6.33
   0  -6   0  154.80    4.22
   0  -6   0  163.69    4.73
   0   6   0  158.37    4.08
   0   6   0  151.02    3.20
   0   6   0  135.80    2.99
   0  -6  -1  498.13    7.94
   0  -6  -1  407.11    5.90
   0  -6  -1  466.09    6.33
   0   6   1  501.40    7.35
   0   6   1  490.26    6.04
   0   6   1  466.38    5.90
   0  -6  -2  618.71    8.81
   0  -6  -2  653.88    7.57
   0  -6  -2  569.63    7.06
   0   6   2  597.15    8.45
   0   6   2  634.80    7.28
   0   6   2  577.79    6.92
   0  -6  -3   36.63    2.55
   0  -6  -3   36.04    2.04
   0  -6  -3   36.48    1.97
   0   6   3   34.22    2.62
   0   6   3   42.67    2.18
   0   6   3   37.72    2.11
   0  -6  -4    0.15    0.95
   0  -6  -4    0.95    1.09
   0  -6  -4    1.24    0.66
   0  -6  -4    0.73    0.73
   0   6   4    0.07    1.09
   0  -6  -5  324.32    6.55
   0  -6  -5  321.99    6.70
   0  -6  -5  322.64    5.17
   0  -6  -5  304.80    4.95
   0   6   5  330.29    7.21
   0  -6  -6  158.66    4.81
   0  -6  -6  160.12    5.10
   0  -6  -6  156.48    3.50
   0  -6  -6  152.91    3.35
   0   6   6  164.12    5.46
   0  -6  -7  217.57    5.61
   0  -6  -7  208.54    6.04
   0  -6  -7  239.63    3.64
   0  -6  -7  208.25    3.42
   0   6   7  228.71    6.63
   0  -6  -8   95.39    4.00
   0  -6  -8   96.84    4.66
   0   6   8   95.97    4.81
   0  -6  -9  174.03    5.24
   0  -6  -9  174.68    6.19
   0   6   9  179.20    6.48
   0  -6 -10  192.74    5.61
   0  -6 -10  184.15    6.70
   0   6  10  192.74    6.92
   0  -6 -11   64.88    4.66
   0   6  11   64.95    4.66
   0  -6 -12  267.52    8.59
   0   6  12  288.78    8.81
   0  -6 -13   84.76    5.75
   0   6  13   87.89    5.68
   0  -6 -14   35.82    4.66
   0   6  14   41.50    4.51
   0  -6 -15    3.13    2.55
   0   6  15    2.33    2.33
   0   6  16   10.92    3.13
  -1   6 -16   39.61    5.17
  -1   6 -15   16.31    3.79
  -1   6 -14  114.54    6.84
  -1   6 -13   18.57    3.57
  -1   6 -12   58.69    4.95
  -1   6 -12   54.10    4.15
  -1   6 -11   72.81    5.10
  -1   6 -11   66.48    4.22
   1  -6  10  106.24    4.30
  -1   6 -10  111.33    5.53
  -1   6 -10  110.90    4.95
   1  -6   9   17.69    2.18
  -1   6  -9   17.26    2.77
  -1   6  -9   20.75    2.77
   1  -6   8   69.39    3.20
  -1   6  -8   75.29    4.30
  -1   6  -8   71.65    3.86
   1  -6   7  375.14    6.48
  -1   6  -7  377.84    8.08
  -1   6  -7  355.19    7.50
   1  -6   6  138.42    4.00
   1  -6   6  153.64    5.17
  -1   6  -6  148.25    5.10
  -1   6  -6  144.54    4.88
   1  -6   5   90.51    3.20
   1  -6   5   94.30    4.00
  -1   6  -5   93.86    4.00
  -1   6  -5   85.34    3.79
   1  -6   4  437.98    6.55
   1  -6   4  455.46    7.79
  -1   6  -4  458.30    4.37
  -1   6  -4  440.97    7.65
  -1   6  -4  415.34    7.50
   1  -6   3   85.48    3.13
   1  -6   3   92.62    3.64
  -1   6  -3   90.51    2.40
  -1   6  -3   88.03    3.50
  -1   6  -3   76.89    3.42
   1  -6   2  110.53    3.50
   1  -6   2  114.25    3.79
   1  -6   2  110.24    3.93
  -1   6  -2  113.74    2.91
  -1   6  -2   87.23    1.67
   1  -6   1   51.41    2.55
   1  -6   1   55.92    2.91
  -1   6  -1   57.38    2.40
  -1   6  -1   62.04    1.89
  -1   6  -1   52.21    1.75
   1  -6   0  559.51    7.65
   1  -6   0  590.60    8.30
  -1   6   0  594.39    7.28
  -1   6   0  581.28    6.12
  -1   6   0  508.10    5.68
   1  -6  -1  208.32    4.88
   1  -6  -1  202.06    4.95
   1  -6  -1  203.81    4.08
  -1   6   1  204.46    4.66
  -1   6   1  208.54    3.93
  -1   6   1  208.10    3.93
   1  -6  -2  685.11    8.74
   1  -6  -2  645.58    7.14
  -1   6   2  694.00    8.74
  -1   6   2  701.28    7.43
  -1   6   2  655.48    7.21
   1  -6  -3  924.97   10.05
   1  -6  -3  891.54    8.30
   1  -6  -3  846.25    8.08
  -1   6   3  886.01   10.27
  -1   6   3  934.80    8.88
  -1   6   3  876.98    8.59
   1  -6  -4  265.85    5.53
   1  -6  -4  272.55    4.59
   1  -6  -4  242.11    4.30
  -1   6   4  264.17    6.04
  -1   6   4  277.64    5.17
  -1   6   4  237.96    6.19
   1  -6  -5  178.54    4.59
   1  -6  -5  164.27    4.95
   1  -6  -5  174.83    3.57
   1  -6  -5  161.50    3.35
  -1   6   5  175.05    5.24
   1  -6  -6   96.92    3.57
   1  -6  -6   94.22    4.08
   1  -6  -6  103.91    2.48
   1  -6  -6   94.15    2.33
  -1   6   6   99.47    4.30
   1  -6  -7   41.14    2.55
   1  -6  -7   39.39    3.06
  -1   6   7   44.56    3.28
   1  -6  -8  300.07    6.04
   1  -6  -8  295.41    7.43
  -1   6   8  301.16    7.57
   1  -6  -9  574.36    8.30
   1  -6  -9  611.86   11.00
  -1   6   9  644.92   11.29
   1  -6 -10  421.96    9.68
  -1   6  10  458.37    9.98
   1  -6 -11  108.06    5.61
  -1   6  11  109.73    5.61
   1  -6 -12   33.42    4.08
  -1   6  12   35.46    3.93
   1  -6 -13   30.22    4.08
  -1   6  13   30.51    3.86
   1  -6 -14    9.76    2.91
  -1   6  14    9.25    2.69
   1  -6 -15   47.84    5.24
  -1   6  15   49.00    4.88
   1  -6 -16    6.26    3.13
  -1   6  16   13.62    3.28
  -1   6  17   10.49    3.28
  -2   6 -16    1.67    2.91
  -2   6 -15  134.78    7.43
  -2   6 -14   45.65    5.10
  -2   6 -13    4.00    2.55
  -2   6 -12   81.41    5.46
  -2   6 -12   66.70    5.10
   2  -6  11  251.36    6.55
  -2   6 -11  272.76    8.30
  -2   6 -11  261.04    6.92
   2  -6  10   10.63    1.97
  -2   6 -10   13.76    2.77
  -2   6 -10   10.56    2.18
   2  -6   9  137.98    4.66
  -2   6  -9  147.23    5.75
  -2   6  -9  143.66    5.10
   2  -6   8   53.37    3.06
  -2   6  -8   55.19    3.79
  -2   6  -8   48.93    3.20
   2  -6   7   47.84    2.84
  -2   6  -7   46.46    3.28
  -2   6  -7   50.82    3.13
   2  -6   6   76.16    3.28
  -2   6  -6   76.46    3.50
   2  -6   5   39.68    2.48
  -2   6  -5   36.63    2.69
  -2   6  -5   34.51    2.55
   2  -6   4  297.01    5.68
  -2   6  -4  304.80    5.90
  -2   6  -4  324.32    3.71
  -2   6  -4  302.69    6.19
   2  -6   3   75.51    2.99
   2  -6   3   75.36    3.20
  -2   6  -3   75.51    3.20
  -2   6  -3   77.47    2.26
  -2   6  -3   76.09    3.20
   2  -6   2   40.92    2.40
   2  -6   2   40.34    2.40
  -2   6  -2   38.45    2.48
  -2   6  -2   41.50    1.97
  -2   6  -2   38.23    2.33
  -2   6  -2   40.78    1.46
  -2   6  -2   34.37    1.31
   2  -6   1  348.78    6.04
   2  -6   1  365.38    5.83
  -2   6  -1  358.76    6.41
  -2   6  -1  358.54    5.24
  -2   6  -1  363.13    5.83
  -2   6  -1  382.79    4.66
  -2   6  -1  310.19    4.22
   2  -6   0  655.84    8.30
   2  -6   0  676.16    7.06
   2  -6   0  644.85    6.92
  -2   6   0  659.56    8.59
  -2   6   0  677.32    7.57
  -2   6   0  689.85    6.70
  -2   6   0  587.25    6.19
   2  -6  -1 2659.56   16.82
   2  -6  -1 2672.81   16.38
   2  -6  -1 2686.06   14.05
   2  -6  -1 2497.69   13.54
  -2   6   1 2564.10   16.75
  -2   6   1 2611.43   15.58
  -2   6   1 2663.20   13.76
  -2   6   1 2360.15   12.96
   2  -6  -2  177.89    4.66
   2  -6  -2  185.39    4.44
   2  -6  -2  182.11    3.71
   2  -6  -2  164.71    3.57
  -2   6   2  177.30    4.59
  -2   6   2  187.93    4.59
  -2   6   2  189.03    3.93
  -2   6   2  161.58    3.57
   2  -6  -3  470.75    7.57
   2  -6  -3  473.08    6.77
   2  -6  -3  468.71    5.75
   2  -6  -3  471.99    5.75
  -2   6   3  460.84    7.28
  -2   6   3  473.73    7.43
  -2   6   3  513.71    6.48
  -2   6   3  455.67    6.04
   2  -6  -4  136.89    3.79
   2  -6  -4  130.05    2.99
   2  -6  -4  125.68    2.91
  -2   6   4  124.44    3.93
  -2   6   4  123.35    4.15
   2  -6  -5  195.07    4.44
   2  -6  -5  184.37    3.28
   2  -6  -5  171.41    3.06
  -2   6   5  186.62    4.73
  -2   6   5  193.47    5.32
   2  -6  -6  293.52    5.32
   2  -6  -6  285.29    6.63
  -2   6   6  286.16    5.83
  -2   6   6  303.78    6.84
   2  -6  -7    2.77    1.02
   2  -6  -7    1.89    1.38
  -2   6   7    0.73    1.17
  -2   6   7    0.73    1.31
   2  -6  -8   57.67    2.69
   2  -6  -8   65.53    3.93
  -2   6   8   63.13    3.06
  -2   6   8   65.39    3.93
   2  -6  -9  398.44    8.96
  -2   6   9  418.47    9.03
   2  -6 -10  683.37   12.09
  -2   6  10  714.46   12.09
   2  -6 -11  419.78   10.05
  -2   6  11  434.49    9.90
   2  -6 -12    1.53    2.04
  -2   6  12    2.62    1.97
   2  -6 -13   71.43    5.32
  -2   6  13   73.11    5.10
   2  -6 -14   22.94    3.86
  -2   6  14   20.97    3.42
   2  -6 -15   15.15    3.57
  -2   6  15   17.84    3.35
   2  -6 -16   36.12    5.10
  -2   6  16   39.90    4.66
  -2   6  17    4.15    2.77
  -3   6 -16   59.71    5.97
  -3   6 -15   47.77    5.61
  -3   6 -14    6.33    2.91
   3  -6  13   19.08    2.99
  -3   6 -13   19.15    3.64
   3  -6  12   72.38    4.30
  -3   6 -12   76.16    5.32
   3  -6  11   24.98    3.06
  -3   6 -11   20.02    3.28
  -3   6 -11   22.14    2.77
   3  -6  10  365.60    7.94
  -3   6 -10  403.32    9.39
  -3   6 -10  395.46    7.79
   3  -6   9  118.03    4.66
  -3   6  -9  125.90    5.39
  -3   6  -9  130.78    4.66
   3  -6   8   52.72    3.20
  -3   6  -8   53.81    3.71
  -3   6  -8   52.06    3.13
   3  -6   7  110.24    4.15
  -3   6  -7  121.67    3.86
  -3   6  -7  122.04    4.73
  -3   6  -7  117.16    4.22
   3  -6   6  255.29    5.75
  -3   6  -6  285.07    5.68
  -3   6  -6  279.46    6.48
   3  -6   5    5.83    1.38
  -3   6  -5    6.33    1.38
  -3   6  -5    9.25    1.67
   3  -6   4   52.06    2.77
  -3   6  -4   52.86    2.77
  -3   6  -4   52.35    2.84
   3  -6   3  527.40    7.65
  -3   6  -3  547.35    7.72
  -3   6  -3  534.90    7.50
  -3   6  -3  571.38    4.37
  -3   6  -3  486.11    4.08
   3  -6   2  179.56    4.51
  -3   6  -2  192.96    4.73
  -3   6  -2  192.23    4.37
  -3   6  -2  199.80    3.28
  -3   6  -2  152.11    2.84
   3  -6   1  204.90    4.81
   3  -6   1  214.88    4.30
   3  -6   1  213.49    6.33
   3  -6   1  190.85    4.15
  -3   6  -1  210.22    4.88
  -3   6  -1  212.84    4.30
  -3   6  -1  222.74    3.79
  -3   6  -1  189.90    3.42
   3  -6   0  221.72    4.95
   3  -6   0  240.22    4.22
   3  -6   0  234.03    4.22
   3  -6   0  225.07    4.08
  -3   6   0  221.43    5.02
  -3   6   0  227.76    4.08
  -3   6   0  240.07    4.08
  -3   6   0  204.32    3.79
   3  -6  -1  414.02    6.77
   3  -6  -1  430.55    5.61
   3  -6  -1  428.66    5.53
  -3   6   1  425.75    6.84
  -3   6   1  422.62    5.53
  -3   6   1  383.37    5.32
   3  -6  -2  121.31    3.93
   3  -6  -2  123.57    3.50
   3  -6  -2  116.72    2.99
   3  -6  -2  118.03    2.91
  -3   6   2  115.05    3.79
  -3   6   2  114.17    3.13
  -3   6   2    0.00    0.15
   3  -6  -3 1001.20   10.85
   3  -6  -3 1052.25    9.47
   3  -6  -3 1043.00    8.08
   3  -6  -3  948.56    7.72
  -3   6   3  974.33   10.34
  -3   6   3 1026.91    9.68
   3  -6  -4  133.91    4.22
   3  -6  -4  131.14    3.50
   3  -6  -4  129.39    2.77
   3  -6  -4  126.04    2.69
  -3   6   4  122.91    3.93
  -3   6   4  126.19    3.86
  -3   6   4  130.19    4.30
   3  -6  -5  378.42    5.61
   3  -6  -5  383.22    3.79
   3  -6  -5  326.79    3.50
  -3   6   5  335.46    6.26
  -3   6   5  346.02    6.99
   3  -6  -6  155.68    3.64
   3  -6  -6  154.73    5.02
  -3   6   6  160.70    4.44
  -3   6   6  159.46    5.10
   3  -6  -7  674.12    7.14
   3  -6  -7  672.30   10.41
  -3   6   7  704.05    8.96
  -3   6   7  692.03   10.56
   3  -6  -8   72.31    4.08
  -3   6   8   73.83    3.28
  -3   6   8   73.62    4.08
   3  -6  -9  541.16   10.27
  -3   6   9  549.82    8.01
  -3   6   9  548.00   10.19
   3  -6 -10  120.58    5.61
  -3   6  10  121.31    5.46
   3  -6 -11    1.82    2.11
  -3   6  11    6.33    2.26
   3  -6 -12   15.66    3.13
  -3   6  12   19.08    3.20
   3  -6 -13   57.89    5.02
  -3   6  13   56.43    4.59
   3  -6 -14   53.66    5.24
  -3   6  14   59.64    4.81
   3  -6 -15   24.68    4.22
  -3   6  15   22.43    3.57
   3  -6 -16   22.72    4.37
  -3   6  16   23.88    3.93
  -4   6 -16   22.28    4.37
   4  -6  15   37.43    5.17
  -4   6 -15   58.25    6.04
   4  -6  14   46.53    4.30
  -4   6 -14   47.62    5.24
   4  -6  13   48.71    4.15
  -4   6 -13   59.93    5.32
   4  -6  12    9.61    2.33
  -4   6 -12    8.16    2.69
   4  -6  11   23.23    3.13
  -4   6 -11   26.43    3.57
   4  -6  10   27.89    3.13
  -4   6 -10   32.04    3.71
  -4   6 -10   32.04    2.77
   4  -6   9  489.32    9.17
  -4   6  -9  533.59   10.27
  -4   6  -9  512.47    8.30
   4  -6   8  463.17    8.59
  -4   6  -8  534.17    7.57
  -4   6  -8  492.16    9.39
  -4   6  -8  501.11    8.08
   4  -6   7   12.96    2.04
  -4   6  -7   14.27    1.82
  -4   6  -7   18.35    2.55
   4  -6   6   71.94    3.50
  -4   6  -6   83.23    3.35
  -4   6  -6   71.65    3.64
   4  -6   5   14.49    1.97
  -4   6  -5   16.82    1.97
  -4   6  -5   13.11    1.97
   4  -6   4   15.00    2.04
  -4   6  -4   15.51    1.89
  -4   6  -4   17.18    2.11
  -4   6  -4   13.76    0.80
   4  -6   3  203.59    5.02
  -4   6  -3  239.92    5.24
  -4   6  -3  219.61    4.88
  -4   6  -3  239.34    3.50
  -4   6  -3  198.78    3.20
   4  -6   2  180.36    4.66
   4  -6   2  195.65    2.62
  -4   6  -2  196.24    4.81
  -4   6  -2  185.97    4.22
  -4   6  -2  200.39    3.57
  -4   6  -2  176.58    3.35
   4  -6   1  379.07    6.55
   4  -6   1  409.66    4.37
   4  -6   1  364.73    5.24
  -4   6  -1  410.09    6.77
  -4   6  -1  380.89    5.46
  -4   6  -1  393.35    5.17
  -4   6  -1  338.81    4.81
   4  -6   0  691.01    8.74
   4  -6   0  715.26    6.41
   4  -6   0  710.82    7.21
   4  -6   0  712.93    7.21
  -4   6   0  691.89    8.81
  -4   6   0  691.89    6.63
  -4   6   0  682.35    6.99
  -4   6   0  615.43    6.63
   4  -6  -1  140.17    4.15
   4  -6  -1  148.32    2.91
   4  -6  -1  151.45    3.42
   4  -6  -1  141.33    3.28
   4  -6  -1  135.07    3.20
  -4   6   1  146.43    4.22
  -4   6   1  141.55    2.84
  -4   6   1  152.40    3.50
  -4   6   1  123.13    3.13
   4  -6  -2   32.48    2.26
   4  -6  -2   30.66    2.04
   4  -6  -2   28.25    1.60
   4  -6  -2   30.15    1.67
  -4   6   2   29.71    2.33
  -4   6   2   30.80    1.97
  -4   6   2   31.89    1.82
  -4   6   2   30.36    1.75
   4  -6  -3  104.13    3.71
   4  -6  -3  109.30    3.50
   4  -6  -3  111.33    2.62
   4  -6  -3   97.57    2.48
  -4   6   3  103.62    3.71
  -4   6   3   98.88    3.35
   4  -6  -4  488.00    7.79
   4  -6  -4  504.61    6.12
   4  -6  -4  468.78    7.28
   4  -6  -4  503.95    4.66
   4  -6  -4  433.90    4.30
  -4   6   4  466.09    7.43
  -4   6   4  479.19    7.35
   4  -6  -5  116.87    4.15
   4  -6  -5  106.16    2.91
   4  -6  -5  100.85    3.93
  -4   6   5  104.49    3.79
  -4   6   5  112.13    4.00
   4  -6  -6  784.51    7.06
   4  -6  -6  734.05   10.41
   4  -6  -6  726.25   10.12
  -4   6   6  746.35    9.39
  -4   6   6  755.16   10.27
   4  -6  -7  641.94   10.27
   4  -6  -7  617.11    9.90
  -4   6   7  638.22    8.74
  -4   6   7  622.64    9.90
  -4   6   7  626.28   10.05
   4  -6  -8   31.38    3.28
  -4   6   8   35.68    2.62
  -4   6   8   32.26    3.13
  -4   6   8   38.96    3.28
   4  -6  -9  616.81   11.00
  -4   6   9  614.48    8.59
  -4   6   9  613.68   10.85
  -4   6   9  612.30   10.78
   4  -6 -10   92.11    5.17
  -4   6  10   96.77    5.02
  -4   6  10   95.68    4.95
   4  -6 -11   75.95    5.02
  -4   6  11   80.53    4.81
   4  -6 -12  183.93    7.28
  -4   6  12  190.19    7.06
   4  -6 -13    3.64    2.48
  -4   6  13    9.54    2.62
   4  -6 -14    2.77    2.48
  -4   6  14    0.87    2.04
   4  -6 -15   24.61    4.15
  -4   6  15   23.23    3.57
   4  -6 -16    9.68    3.42
  -4   6  16   12.45    3.20
   5  -6  16   17.48    3.42
  -5   6 -16   21.33    4.30
   5  -6  15   17.84    3.42
  -5   6 -15   16.31    3.86
   5  -6  14    1.89    2.04
  -5   6 -14    2.40    2.62
   5  -6  13   92.11    5.39
  -5   6 -13   98.37    6.12
   5  -6  12    4.30    2.11
  -5   6 -12    4.30    2.48
   5  -6  11   38.59    3.71
  -5   6 -11   40.41    4.15
   5  -6  10   64.15    4.15
  -5   6 -10   61.67    4.44
   5  -6   9  139.66    5.39
  -5   6  -9  143.01    5.75
  -5   6  -9  148.54    4.59
   5  -6   8   61.67    3.86
  -5   6  -8   76.67    3.35
  -5   6  -8   70.92    4.22
   5  -6   7  178.18    5.53
  -5   6  -7  208.25    5.02
  -5   6  -7  182.69    5.75
   5  -6   6  300.73    6.84
  -5   6  -6  330.94    6.19
  -5   6  -6  308.81    6.92
   5  -6   5  123.93    4.44
  -5   6  -5  132.16    4.15
  -5   6  -5  122.55    4.30
   5  -6   4  302.84    6.48
   5  -6   4  311.21    3.71
  -5   6  -4  338.81    6.33
  -5   6  -4  307.35    6.12
  -5   6  -4  332.33    4.08
  -5   6  -4  297.30    3.86
   5  -6   3   50.17    2.84
   5  -6   3   50.46    1.75
  -5   6  -3   56.72    2.91
  -5   6  -3   50.97    2.69
  -5   6  -3   54.25    2.04
  -5   6  -3   46.09    1.82
   5  -6   2   75.73    3.28
   5  -6   2   76.24    2.18
   5  -6   2   76.67    2.62
   5  -6   2   73.25    2.55
  -5   6  -2   80.75    3.35
  -5   6  -2   71.29    2.84
  -5   6  -2   76.97    2.48
  -5   6  -2   72.67    2.33
   5  -6   1  117.52    3.93
   5  -6   1  116.43    2.84
   5  -6   1  121.31    3.20
   5  -6   1  107.77    2.99
  -5   6  -1  124.51    4.08
  -5   6  -1  117.67    3.20
  -5   6  -1  120.58    3.13
  -5   6  -1  101.07    2.84
   5  -6   0  337.93    6.33
   5  -6   0  357.59    5.10
   5  -6   0  359.85    5.24
   5  -6   0  327.08    5.02
  -5   6   0  352.86    6.55
  -5   6   0  343.47    4.73
  -5   6   0  294.61    4.81
   5  -6  -1  267.08    5.68
   5  -6  -1  270.73    4.81
   5  -6  -1  276.62    4.51
   5  -6  -1  270.14    4.44
  -5   6   1  275.39    5.83
  -5   6   1  270.14    3.71
  -5   6   1  312.52    5.02
   5  -6  -2  488.73    7.65
   5  -6  -2  494.92    4.08
   5  -6  -2  488.37    6.77
   5  -6  -2  471.33    5.46
   5  -6  -2  469.95    5.46
  -5   6   2  466.82    7.57
  -5   6   2  485.75    4.00
   5  -6  -3   84.83    3.42
   5  -6  -3   87.45    3.35
   5  -6  -3   80.82    2.18
   5  -6  -3   81.92    2.18
  -5   6   3   88.62    3.57
   5  -6  -4  679.65    9.17
   5  -6  -4  677.91    8.96
  -5   6   4  650.09    8.96
   5  -6  -5  786.04   10.12
   5  -6  -5  812.32    6.99
   5  -6  -5  794.56   10.27
  -5   6   5  768.71    9.76
   5  -6  -6  374.34    4.44
   5  -6  -6  367.28    7.50
  -5   6   6  358.03    6.84
  -5   6   6  354.83    7.35
   5  -6  -7  535.99    9.47
   5  -6  -7  540.29    9.47
  -5   6   7  556.52    8.52
  -5   6   7  535.84    9.39
   5  -6  -8  328.69    7.86
   5  -6  -8  344.71    8.08
  -5   6   8  356.28    6.92
  -5   6   8  344.71    8.01
   5  -6  -9  222.52    6.92
   5  -6  -9  232.35    7.14
  -5   6   9  245.53    5.90
  -5   6   9  229.59    6.99
   5  -6 -10   37.06    4.00
   5  -6 -10   46.75    4.30
  -5   6  10   42.23    3.86
  -5   6  10   46.09    3.93
   5  -6 -11  123.57    5.97
  -5   6  11  124.37    6.04
  -5   6  11  124.73    5.75
   5  -6 -12    3.50    2.40
  -5   6  12    5.68    2.48
  -5   6  12    2.69    2.04
   5  -6 -13   48.71    4.88
  -5   6  13   56.36    4.66
   5  -6 -14   19.66    3.93
  -5   6  14   25.56    3.79
   5  -6 -15   -0.07    2.33
  -5   6  15    0.87    2.04
   5  -6 -16   28.91    4.88
  -5   6  16   21.33    4.22
   6  -6  16   10.85    3.20
   6  -6  15    5.02    2.62
  -6   6 -15    5.61    3.06
   6  -6  14   37.28    4.37
  -6   6 -14   43.98    5.10
   6  -6  13   86.43    5.46
  -6   6 -13   84.68    5.90
   6  -6  12  254.71    8.16
  -6   6 -12  267.38    8.81
   6  -6  11   64.44    4.59
  -6   6 -11   64.08    4.81
   6  -6  10  175.41    6.48
  -6   6 -10  180.44    6.84
   6  -6   9  170.90    6.19
  -6   6  -9  161.28    6.19
   6  -6   8   83.96    4.51
  -6   6  -8   96.04    3.79
  -6   6  -8   86.58    4.59
   6  -6   7  204.97    6.19
  -6   6  -7  230.31    5.46
  -6   6  -7  206.43    6.19
   6  -6   6  147.30    5.17
  -6   6  -6  164.49    4.73
  -6   6  -6  149.05    5.10
   6  -6   5  300.07    6.92
  -6   6  -5  334.15    6.55
  -6   6  -5  303.27    6.63
  -6   6  -5  330.51    4.15
   6  -6   4    2.40    1.31
   6  -6   4    1.31    0.80
  -6   6  -4    1.17    1.17
  -6   6  -4    2.55    1.31
  -6   6  -4    1.67    0.87
  -6   6  -4    1.31    0.66
   6  -6   3   26.36    2.48
   6  -6   3   25.85    1.75
  -6   6  -3   32.18    2.55
  -6   6  -3   25.19    2.18
  -6   6  -3   28.54    1.82
  -6   6  -3   24.98    1.60
   6  -6   2  553.32    8.59
   6  -6   2  566.35    6.48
   6  -6   2  573.13    7.14
   6  -6   2  514.58    6.70
  -6   6  -2  585.58    8.59
  -6   6  -2  539.27    7.21
  -6   6  -2  626.94    7.14
  -6   6  -2  521.14    6.48
   6  -6   1  477.23    7.86
   6  -6   1  511.23    6.41
   6  -6   1  509.56    6.55
   6  -6   1  461.94    6.19
  -6   6  -1  505.48    8.08
  -6   6  -1  476.50    6.26
  -6   6  -1  513.78    6.63
  -6   6  -1  451.60    6.12
   6  -6   0  162.30    4.73
   6  -6   0  172.79    4.08
   6  -6   0  158.88    3.64
   6  -6   0  157.64    3.57
  -6   6   0  169.37    4.88
  -6   6   0  160.70    3.42
  -6   6   0  165.36    3.86
   6  -6  -1 1067.03   11.36
   6  -6  -1 1032.15    9.98
   6  -6  -1 1041.98    8.59
   6  -6  -1 1026.25    8.52
  -6   6   1 1008.56   11.36
  -6   6   1 1006.45    7.28
  -6   6   1 1087.85    9.68
  -6   6   1  899.99    8.74
   6  -6  -2  165.94    4.66
   6  -6  -2  155.10    4.30
   6  -6  -2  151.60    3.13
   6  -6  -2  158.15    3.20
  -6   6   2  147.30    4.66
  -6   6   2  154.08    2.48
   6  -6  -3   39.90    2.69
   6  -6  -3   35.90    1.46
   6  -6  -3   36.48    1.46
   6  -6  -4  104.93    3.93
   6  -6  -4   98.45    3.93
  -6   6   4   96.41    3.93
   6  -6  -5  109.44    4.08
   6  -6  -5   98.74    4.15
  -6   6   5  104.49    4.15
   6  -6  -6  239.49    5.90
   6  -6  -6  257.69    6.63
  -6   6   6  244.58    6.04
   6  -6  -7  358.76    7.94
   6  -6  -7  364.73    8.16
  -6   6   7  357.45    7.21
   6  -6  -8   50.68    3.86
   6  -6  -8   56.29    4.00
  -6   6   8   55.05    3.35
  -6   6   8   49.81    3.86
   6  -6  -9   88.40    4.88
   6  -6  -9   96.70    5.17
  -6   6   9   92.18    4.08
  -6   6   9   80.82    4.66
   6  -6 -10   80.82    5.02
   6  -6 -10   85.78    5.24
  -6   6  10   87.45    4.15
  -6   6  10   79.73    4.95
   6  -6 -11  154.00    6.63
   6  -6 -11  154.66    6.84
  -6   6  11  156.11    6.70
  -6   6  11  151.24    6.33
   6  -6 -12   67.21    5.17
   6  -6 -12   63.20    5.32
  -6   6  12   60.00    4.95
  -6   6  12   66.63    4.88
   6  -6 -13   59.49    5.17
  -6   6  13   58.18    5.24
  -6   6  13   60.51    4.81
   6  -6 -14    3.06    2.55
  -6   6  14    0.80    2.33
  -6   6  14    2.62    2.26
   6  -6 -15   23.52    4.22
  -6   6  15   28.25    4.08
   6  -6 -16   11.58    3.50
   7  -6  16    9.54    3.93
   7  -6  15   10.63    3.13
  -7   6 -15   13.76    3.86
   7  -6  14   30.44    4.30
  -7   6 -14   28.32    4.37
   7  -6  13  148.76    6.99
  -7   6 -13  167.26    7.72
   7  -6  12   12.31    2.84
  -7   6 -12   10.85    2.99
   7  -6  11   14.93    2.91
  -7   6 -11   13.91    3.06
   7  -6  10   16.97    2.91
  -7   6 -10   23.52    3.57
   7  -6   9  171.04    6.48
  -7   6  -9  174.61    6.55
   7  -6   8   56.07    4.08
  -7   6  -8   66.55    3.50
  -7   6  -8   58.83    4.15
   7  -6   7   23.16    3.06
  -7   6  -7   24.17    2.62
  -7   6  -7   22.57    2.91
   7  -6   6  329.92    7.79
  -7   6  -6  367.50    7.14
  -7   6  -6  334.37    7.57
  -7   6  -6  347.69    4.22
  -7   6  -6  353.59    4.30
   7  -6   5   25.56    2.77
  -7   6  -5   28.98    2.62
  -7   6  -5   26.80    2.69
  -7   6  -5   30.44    1.82
   7  -6   4  106.67    4.44
  -7   6  -4  118.40    4.37
  -7   6  -4  109.95    4.15
  -7   6  -4  118.91    3.35
  -7   6  -4  108.64    3.13
   7  -6   3  462.81    8.37
   7  -6   3  454.95    6.55
  -7   6  -3  488.37    8.30
  -7   6  -3  437.03    7.28
  -7   6  -3  519.68    6.84
  -7   6  -3  439.07    6.26
   7  -6   2  136.45    4.66
   7  -6   2  129.90    3.79
   7  -6   2  137.62    3.79
   7  -6   2  124.44    3.57
  -7   6  -2  137.84    4.66
  -7   6  -2  134.34    4.00
  -7   6  -2  134.12    3.71
  -7   6  -2  124.37    3.50
   7  -6   1  452.11    7.94
   7  -6   1  462.45    6.92
   7  -6   1  470.24    6.55
   7  -6   1  418.90    6.19
  -7   6  -1  486.84    8.37
  -7   6  -1  443.95    6.41
  -7   6  -1  470.02    6.70
   7  -6   0  457.28    7.86
   7  -6   0  448.18    6.99
   7  -6   0  448.39    6.12
   7  -6   0  445.99    6.12
  -7   6   0  457.28    8.16
  -7   6   0  430.85    5.83
   7  -6  -1   83.96    3.71
   7  -6  -1   81.04    3.42
   7  -6  -1   85.70    2.69
   7  -6  -1   83.01    2.69
  -7   6   1   81.26    3.86
  -7   6   1   77.62    2.48
   7  -6  -2  811.96   10.19
   7  -6  -2  795.87    9.98
   7  -6  -2  849.68    6.99
   7  -6  -2  805.99    6.77
  -7   6   2  821.21   10.92
  -7   6   2  774.82    6.04
   7  -6  -3   49.37    2.99
   7  -6  -3   50.39    3.13
  -7   6   3   48.64    3.20
   7  -6  -4  599.99    8.88
   7  -6  -4  582.45    9.25
  -7   6   4  571.60    9.32
   7  -6  -5  347.98    6.92
   7  -6  -5  325.34    7.35
  -7   6   5  335.68    7.35
   7  -6  -6  362.91    7.21
   7  -6  -6  338.66    7.86
  -7   6   6  342.81    7.43
   7  -6  -7   12.60    2.40
   7  -6  -7   17.99    2.91
  -7   6   7   12.60    2.26
   7  -6  -8    3.20    1.82
   7  -6  -8    1.02    1.89
  -7   6   8    2.26    1.60
   7  -6  -9   10.63    2.62
   7  -6  -9    8.52    2.55
  -7   6   9    9.03    2.11
   7  -6 -10   26.72    3.64
   7  -6 -10   24.54    3.57
  -7   6  10   25.49    2.99
  -7   6  10   23.74    3.50
   7  -6 -11    4.95    2.26
   7  -6 -11    5.32    2.62
  -7   6  11    5.46    2.40
   7  -6 -12   38.08    4.22
   7  -6 -12   36.26    4.51
  -7   6  12   36.84    4.44
   7  -6 -13   34.88    4.44
   7  -6 -13   31.16    4.59
  -7   6  13   30.51    4.44
  -7   6  13   33.28    4.15
   7  -6 -14    2.62    2.33
   7  -6 -14   -0.66    2.40
  -7   6  14    0.73    2.40
  -7   6  14    0.87    2.11
   7  -6 -15   14.93    3.64
  -7   6  15   17.62    4.00
  -7   6  15   18.79    3.79
   7  -6 -16    3.93    2.99
   8  -6  15   16.09    3.86
   8  -6  14   32.18    4.37
  -8   6 -14   36.26    4.95
   8  -6  13    6.55    2.69
  -8   6 -13    4.66    2.84
   8  -6  12   55.27    4.88
  -8   6 -12   44.78    5.02
   8  -6  11   33.06    4.08
  -8   6 -11   32.33    4.30
   8  -6  10   15.22    3.06
  -8   6 -10   10.78    2.84
   8  -6   9  129.17    6.04
  -8   6  -9  136.09    6.19
   8  -6   8    6.41    2.26
  -8   6  -8    8.16    1.97
  -8   6  -8    8.52    2.48
   8  -6   7  146.14    5.90
  -8   6  -7  166.67    5.32
  -8   6  -7  146.43    5.75
  -8   6  -7  167.77    2.91
  -8   6  -7  163.47    2.91
   8  -6   6   53.08    3.86
  -8   6  -6   61.16    3.57
  -8   6  -6   56.94    3.79
  -8   6  -6   53.81    2.33
  -8   6  -6   60.22    2.40
   8  -6   5   34.66    3.28
  -8   6  -5   36.48    3.06
  -8   6  -5   34.37    3.13
  -8   6  -5   38.81    2.26
   8  -6   4   44.71    3.42
  -8   6  -4   48.64    3.35
  -8   6  -4   44.93    3.13
  -8   6  -4   46.46    2.48
  -8   6  -4   40.19    2.18
   8  -6   3    5.32    1.67
   8  -6   3    4.08    1.38
  -8   6  -3    4.73    1.67
  -8   6  -3    4.88    1.53
  -8   6  -3    4.44    1.17
  -8   6  -3    2.99    0.95
   8  -6   2  145.41    5.02
   8  -6   2  145.05    4.37
  -8   6  -2  150.73    5.24
  -8   6  -2  134.20    4.30
   8  -6   1   54.90    3.35
   8  -6   1   56.14    3.06
   8  -6   1   61.75    2.77
   8  -6   1   53.74    2.48
  -8   6  -1   56.94    3.57
  -8   6  -1   54.17    2.84
   8  -6   0  744.97   10.34
   8  -6   0  714.82    9.61
   8  -6   0  708.34    7.79
   8  -6   0  722.10    7.86
  -8   6   0  756.69   11.00
  -8   6   0  709.36    8.01
   8  -6  -1  229.44    5.90
   8  -6  -1  223.47    5.75
   8  -6  -1  209.05    4.00
   8  -6  -1  222.45    4.08
  -8   6   1  223.98    6.26
  -8   6   1  217.93    4.22
   8  -6  -2   95.61    3.93
   8  -6  -2   93.79    4.15
   8  -6  -2   93.06    2.40
   8  -6  -2  100.85    2.48
  -8   6   2   93.49    4.37
  -8   6   2   90.07    2.62
   8  -6  -3  375.51    7.21
   8  -6  -3  365.24    7.65
  -8   6   3  366.70    7.94
   8  -6  -4  340.41    6.92
   8  -6  -4  316.67    7.43
  -8   6   4  324.61    7.57
   8  -6  -5  392.47    7.43
   8  -6  -5  394.22    8.52
  -8   6   5  375.58    8.23
   8  -6  -6  309.90    6.77
   8  -6  -6  288.86    7.72
  -8   6   6  278.59    7.28
   8  -6  -7  159.97    5.17
   8  -6  -7  159.83    5.68
   8  -6  -7  149.85    6.04
  -8   6   7  148.98    5.61
   8  -6  -8    4.66    1.97
   8  -6  -8    6.92    2.40
  -8   6   8    4.30    1.97
   8  -6  -9  159.83    6.19
   8  -6  -9  162.01    6.92
  -8   6   9  156.70    5.83
   8  -6 -10   65.90    4.73
   8  -6 -10   68.37    5.39
  -8   6  10   67.50    4.30
   8  -6 -11   28.18    3.79
   8  -6 -11   26.65    4.00
  -8   6  11   22.50    3.71
   8  -6 -12   46.60    4.66
   8  -6 -12   48.13    5.39
  -8   6  12   43.32    4.88
   8  -6 -13   16.31    3.42
   8  -6 -13   22.79    4.22
  -8   6  13   22.43    4.08
   8  -6 -14    2.11    2.55
   8  -6 -14   -2.11    2.40
  -8   6  14    0.66    2.40
  -8   6  14    0.07    2.26
   8  -6 -15   49.00    5.46
   9  -6  14    8.01    3.20
  -9   6 -14   11.50    4.44
   9  -6  13   13.69    3.20
  -9   6 -13   14.49    3.79
   9  -6  12   25.27    4.00
  -9   6 -12   30.36    4.66
   9  -6  11   10.27    2.91
  -9   6 -11   11.65    3.20
   9  -6  10   17.40    3.28
  -9   6 -10   19.51    3.57
   9  -6   9    8.88    2.62
  -9   6  -9   13.91    3.06
   9  -6   8   49.88    4.30
  -9   6  -8   53.15    3.71
  -9   6  -8   53.08    4.44
   9  -6   7   60.00    4.44
  -9   6  -7   66.99    4.00
  -9   6  -7   63.35    4.44
  -9   6  -7   62.77    2.40
  -9   6  -7   67.43    2.55
   9  -6   6   22.94    3.20
  -9   6  -6   24.25    2.99
  -9   6  -6   23.66    3.13
  -9   6  -6   24.03    2.04
  -9   6  -6   23.01    2.04
   9  -6   5   41.58    3.71
  -9   6  -5   46.89    3.64
  -9   6  -5   42.16    3.57
  -9   6  -5   41.29    2.55
   9  -6   4   69.39    4.22
  -9   6  -4   75.95    4.30
  -9   6  -4   77.26    4.00
   9  -6   3   27.96    3.13
   9  -6   3   26.65    2.84
  -9   6  -3   25.27    3.13
  -9   6  -3   28.18    2.77
   9  -6   2   83.59    4.30
   9  -6   2   83.01    4.00
  -9   6  -2   79.51    4.37
  -9   6  -2   79.73    3.71
   9  -6   1   23.66    2.84
   9  -6   1   24.98    2.77
   9  -6   1   24.25    2.11
   9  -6   1   24.47    2.04
  -9   6  -1   28.11    3.28
  -9   6  -1   23.23    2.40
   9  -6   0  665.67   10.19
   9  -6   0  654.24   10.05
   9  -6   0  664.14    7.65
   9  -6   0  642.08    7.50
  -9   6   0  683.88   11.14
  -9   6   0  613.25    8.08
   9  -6  -1   51.48    3.35
   9  -6  -1   46.67    3.50
   9  -6  -1   53.08    2.26
   9  -6  -1   48.64    2.18
  -9   6   1   51.77    3.93
   9  -6  -2    3.79    1.60
   9  -6  -2    3.93    1.82
   9  -6  -2    3.28    0.73
   9  -6  -2    4.73    0.87
  -9   6   2    3.79    1.89
   9  -6  -3  148.76    4.88
   9  -6  -3  142.94    5.46
  -9   6   3  143.01    5.61
   9  -6  -4   50.02    3.28
   9  -6  -4   47.98    3.86
  -9   6   4   53.23    4.08
   9  -6  -5  167.69    5.17
   9  -6  -5  151.45    5.97
  -9   6   5  158.08    5.97
   9  -6  -6  320.39    6.92
   9  -6  -6  324.46    7.50
   9  -6  -6  323.73    8.59
  -9   6   6  315.14    8.16
   9  -6  -7  223.32    6.63
   9  -6  -7  216.26    7.50
  -9   6   7  220.63    7.06
   9  -6  -8   47.11    3.86
   9  -6  -8   44.34    4.51
  -9   6   8   38.74    3.93
   9  -6  -9   32.62    3.79
   9  -6  -9   33.71    4.37
  -9   6   9   32.11    3.86
   9  -6 -10   32.40    4.00
   9  -6 -10   36.70    4.51
  -9   6  10   34.81    3.86
   9  -6 -11   17.91    3.20
   9  -6 -11   19.08    3.86
   9  -6 -12   68.96    6.04
   9  -6 -13   22.43    4.22
  -9   6  13   18.71    3.93
   9  -6 -14   15.36    4.51
  -9   6  14   14.71    3.93
  10  -6  13   27.60    4.44
 -10   6 -13   35.32    5.10
  10  -6  12   -0.80    2.18
 -10   6 -12    1.75    2.77
  10  -6  11   50.10    5.10
 -10   6 -11   56.36    5.53
  10  -6  10    0.51    2.11
 -10   6 -10    2.11    2.48
  10  -6   9   75.58    5.39
 -10   6  -9   77.98    5.61
  10  -6   8   51.77    4.66
 -10   6  -8   62.26    5.39
 -10   6  -8   58.98    4.95
 -10   6  -8   55.48    2.18
 -10   6  -8   56.94    2.26
  10  -6   7   26.43    3.71
 -10   6  -7   28.54    3.42
 -10   6  -7   27.09    3.64
 -10   6  -7   26.87    2.11
 -10   6  -7   26.72    2.18
  10  -6   6  102.23    5.46
 -10   6  -6  113.01    5.24
 -10   6  -6  101.87    5.24
 -10   6  -6  106.16    3.71
 -10   6  -6  106.82    3.79
  10  -6   5  252.81    7.72
 -10   6  -5  273.13    7.65
 -10   6  -5  253.03    7.35
  10  -6   4   81.19    4.81
 -10   6  -4   77.55    4.66
 -10   6  -4   75.65    4.37
  10  -6   3  379.58    8.81
  10  -6   3  361.16    8.08
 -10   6  -3  378.05    8.88
 -10   6  -3  355.19    7.86
  10  -6   2  176.21    6.12
  10  -6   2  176.14    5.97
 -10   6  -2  182.33    6.55
  10  -6   1  225.29    6.63
  10  -6   1  205.19    6.33
  10  -6   1  210.94    4.88
  10  -6   1  204.46    4.81
 -10   6  -1  222.38    7.14
  10  -6   0  105.44    4.73
  10  -6   0  108.49    5.02
  10  -6   0  105.51    3.35
  10  -6   0  107.18    3.42
 -10   6   0  104.34    5.32
  10  -6  -1  460.34    8.74
  10  -6  -1  442.35    9.17
  10  -6  -1  466.74    5.53
  10  -6  -1  457.64    5.46
 -10   6   1  463.68    9.98
  10  -6  -2   35.53    3.13
  10  -6  -2   37.43    3.71
 -10   6   2   37.21    3.93
  10  -6  -3   13.11    2.26
  10  -6  -3    9.68    2.48
 -10   6   3   10.78    2.62
  10  -6  -4   59.20    3.57
  10  -6  -4   54.47    4.37
 -10   6   4   56.07    4.51
  10  -6  -5   44.13    4.44
 -10   6   5   48.86    4.37
  10  -6  -6   10.56    2.40
  10  -6  -6   11.65    2.91
 -10   6   6   13.54    2.84
  10  -6  -7   68.52    5.39
 -10   6   7   70.19    4.95
  10  -6  -8   36.19    4.51
 -10   6   8   36.70    4.15
  10  -6  -9   47.11    5.10
 -10   6   9   38.52    4.37
  10  -6 -10   87.52    6.26
 -10   6  10   79.15    5.32
  10  -6 -11   15.00    3.71
  10  -6 -12   -1.09    2.69
  10  -6 -13  120.73    8.01
  11  -6  12   24.03    5.32
 -11   6 -12   38.45    5.53
  11  -6  11    3.50    2.62
 -11   6 -11    2.77    2.99
  11  -6  10   56.14    5.32
 -11   6 -10   61.53    5.83
  11  -6   9   10.63    3.20
 -11   6  -9   11.72    3.20
  11  -6   8    7.14    2.77
 -11   6  -8    9.61    2.99
 -11   6  -8    8.37    1.46
 -11   6  -8    8.59    1.60
  11  -6   7   22.57    3.71
 -11   6  -7   23.23    3.42
 -11   6  -7   20.61    3.50
 -11   6  -7   25.49    2.26
 -11   6  -7   22.14    2.33
  11  -6   6   15.51    3.06
 -11   6  -6   12.31    2.77
 -11   6  -6   17.18    3.13
  11  -6   5   13.47    2.84
 -11   6  -5   16.46    3.06
 -11   6  -5   16.46    2.91
  11  -6   4   13.98    2.84
  11  -6   4   12.01    2.62
 -11   6  -4   15.00    2.84
 -11   6  -4   13.76    2.84
  11  -6   3   12.82    2.69
  11  -6   3   12.45    2.69
 -11   6  -3   14.05    2.91
  11  -6   2  177.38    6.41
  11  -6   2  164.49    6.19
 -11   6  -2  176.14    6.84
  11  -6   1    7.79    2.18
  11  -6   1   10.34    2.40
  11  -6   1    8.37    1.60
  11  -6   1    6.70    1.38
 -11   6  -1    9.83    2.69
  11  -6   0   20.32    2.84
  11  -6   0   23.37    3.28
  11  -6   0   20.68    1.89
  11  -6   0   20.24    1.97
 -11   6   0   21.19    3.42
  11  -6  -1   24.10    2.91
  11  -6  -1   25.05    3.42
 -11   6   1   21.12    3.42
  11  -6  -2  190.12    5.97
  11  -6  -2  186.19    6.92
 -11   6   2  183.49    7.21
  11  -6  -3   57.67    5.83
  11  -6  -3   68.01    4.95
 -11   6   3   57.74    4.95
  11  -6  -4   40.56    4.51
 -11   6   4   46.82    4.66
  11  -6  -5    1.09    2.48
 -11   6   5    5.83    2.48
  11  -6  -6   26.29    3.86
 -11   6   6   28.91    3.71
  11  -6  -7    1.53    2.55
 -11   6   7    2.91    2.40
  11  -6  -8   18.42    3.79
 -11   6   8   19.08    3.50
  11  -6  -9    0.29    2.62
 -11   6   9    0.15    2.40
  11  -6 -10   24.39    4.44
 -11   6  10   24.76    3.86
  11  -6 -11    4.51    3.13
  11  -6 -12    9.17    5.32
  12  -6  10   11.07    3.64
 -12   6 -10   12.38    3.86
  12  -6   9   24.17    4.00
 -12   6  -9   26.94    4.37
  12  -6   8   35.39    4.73
 -12   6  -8   30.95    4.51
 -12   6  -8   31.60    2.40
 -12   6  -8   31.75    2.55
  12  -6   7    8.96    2.91
 -12   6  -7   12.45    3.06
 -12   6  -7   12.31    3.06
  12  -6   6    3.93    2.55
 -12   6  -6    3.79    2.40
 -12   6  -6    2.77    2.33
  12  -6   5    7.06    2.62
 -12   6  -5    6.48    2.55
 -12   6  -5    6.84    2.55
  12  -6   4   17.62    3.28
  12  -6   4   20.02    3.35
 -12   6  -4   15.29    3.35
  12  -6   3   38.52    4.08
  12  -6   3   27.01    3.71
 -12   6  -3   32.11    4.08
  12  -6   2   57.52    4.37
  12  -6   2   59.49    4.81
  12  -6   2   60.58    4.66
  12  -6   2   50.97    3.06
 -12   6  -2   61.53    5.17
  12  -6   1   81.70    4.81
  12  -6   1   74.78    5.10
  12  -6   1   74.13    3.06
  12  -6   1   76.24    3.20
 -12   6  -1   77.69    5.53
  12  -6   0   17.11    2.84
  12  -6   0   17.26    3.20
  12  -6   0   13.62    1.60
  12  -6   0   16.09    1.75
 -12   6   0   19.59    3.57
  12  -6  -1   10.34    2.84
 -12   6   1   12.01    3.20
  12  -6  -2   20.68    3.57
 -12   6   2   22.14    3.86
  12  -6  -3  132.89    6.70
 -12   6   3  126.62    6.70
  12  -6  -4   16.02    3.42
 -12   6   4   17.69    3.57
  12  -6  -5    8.45    3.13
 -12   6   5    9.98    3.06
  12  -6  -6    4.08    2.91
 -12   6   6    4.15    2.69
  12  -6  -7   56.29    5.75
 -12   6   7   59.56    5.46
  12  -6  -8   54.03    5.90
 -12   6   8   49.15    5.24
  12  -6  -9   50.97    5.90
 -12   6   9   44.93    5.39
  12  -6 -10   10.85    3.71
 -12   6  10    4.95    3.13
  13  -6   9    5.32    3.06
 -13   6  -9    6.19    3.13
 -13   6  -9    6.77    1.38
  13  -6   8   22.86    4.30
 -13   6  -8   17.69    3.86
 -13   6  -8   16.02    2.33
 -13   6  -8   20.53    2.55
  13  -6   7    7.94    3.06
 -13   6  -7   10.12    3.20
 -13   6  -7    7.86    2.99
  13  -6   6    7.35    2.99
 -13   6  -6    9.90    3.13
 -13   6  -6    8.37    2.99
  13  -6   5   27.89    4.08
  13  -6   5   29.20    4.08
 -13   6  -5   25.27    4.00
 -13   6  -5   19.00    3.50
  13  -6   4   29.71    4.08
  13  -6   4   31.75    4.22
 -13   6  -4   34.81    4.51
  13  -6   3   21.04    3.42
  13  -6   3   17.84    3.35
 -13   6  -3   20.32    3.79
  13  -6   2   12.45    2.84
  13  -6   2   15.29    3.35
  13  -6   2   17.40    2.11
  13  -6   2   13.33    1.97
 -13   6  -2   18.06    3.64
  13  -6   1   11.50    3.06
  13  -6   1   15.58    1.75
  13  -6   1   13.54    1.75
 -13   6  -1   13.33    3.50
  13  -6   0   35.39    4.44
 -13   6   0   42.67    5.24
  13  -6  -1    4.66    2.77
 -13   6   1    5.02    2.84
  13  -6  -2   54.98    5.32
 -13   6   2   66.04    5.68
  13  -6  -3  102.45    6.70
 -13   6   3  113.30    6.92
  13  -6  -4   32.77    4.59
 -13   6   4   39.61    4.88
  13  -6  -5   75.87    6.26
 -13   6   5   67.64    5.83
  13  -6  -6   20.10    4.08
 -13   6   6   21.19    4.08
  13  -6  -7  112.79    7.28
 -13   6   7  112.94    6.99
  13  -6  -8   80.39    6.92
 -13   6   8   87.30    6.55
 -13   6   9   14.64    3.79
 -13   6  10   35.24    5.02
  14  -6   7   15.66    3.71
 -14   6  -7   12.45    3.57
  14  -6   6   40.78    5.10
  14  -6   6   47.33    5.46
 -14   6  -6   47.40    5.53
 -14   6  -6   31.89    4.59
  14  -6   5   -0.87    2.33
  14  -6   5    1.17    2.77
 -14   6  -5    0.44    2.55
  14  -6   4   23.08    4.00
  14  -6   4   22.79    4.08
 -14   6  -4   22.50    4.37
  14  -6   3   26.80    4.15
  14  -6   3   25.49    2.69
 -14   6  -3   29.93    4.66
  14  -6   2    6.26    2.91
  14  -6   2    5.68    1.46
  14  -6   2    5.32    1.60
 -14   6  -2   10.12    3.42
  14  -6   1    4.95    2.99
 -14   6  -1    2.48    3.20
  14  -6   0   76.16    6.33
 -14   6   0   71.58    6.41
  14  -6  -1    0.58    2.62
 -14   6   1    0.22    2.84
  14  -6  -2   33.13    4.81
 -14   6   2   35.02    4.88
  14  -6  -3   86.65    6.70
 -14   6   3   87.96    6.77
  14  -6  -4   11.43    3.79
 -14   6   4   12.52    3.64
  14  -6  -5   32.55    4.95
 -14   6   5   39.32    5.39
  14  -6  -6    4.66    3.93
 -14   6   6    6.63    3.42
 -14   6   7   25.49    6.63
  15  -6   4   -2.04    3.20
  15  -6   3    1.17    2.84
  15  -6   3    2.04    1.38
  15  -6   3    3.06    1.60
  15  -6   2   16.53    3.93
  15  -6   1    8.96    3.50
  15  -6   0    0.73    3.06
  15  -6  -1   36.92    6.41
  -8  -7   5   20.46    4.15
  -8  -7   4    6.92    3.20
  -8  -7   3   10.92    3.57
   8   7  -3   13.98    3.71
  -8  -7   2   28.98    4.66
   8   7  -2   36.04    4.95
  -8  -7   1   52.65    5.83
   8   7  -1   50.32    5.68
  -8  -7   0   41.94    5.68
   8   7   0   41.43    6.04
   8   7   1   14.42    3.57
   8   7   2    6.12    2.91
   8   7   3    2.33    2.55
   8   7   5   25.99    2.99
   8   7   5   24.39    2.33
  -7  -7   6   10.78    3.20
   7   7  -6    8.01    3.35
  -7  -7   5   68.23    5.75
   7   7  -5   69.32    6.26
  -7  -7   4    9.61    3.20
   7   7  -4    7.94    3.20
  -7  -7   3    5.83    2.84
   7   7  -3   12.09    3.28
  -7  -7   2   80.68    6.19
   7   7  -2   73.40    5.68
  -7  -7   1    2.91    2.55
   7   7  -1    0.95    2.26
  -7  -7   0   17.62    3.71
   7   7   0   15.80    3.28
   7   7   0   17.55    3.42
  -7  -7  -1   83.66    6.26
   7   7   1   81.26    5.68
   7   7   1   79.66    5.46
  -7  -7  -2    3.13    2.69
   7   7   2    2.91    2.33
  -7  -7  -3    0.80    2.40
   7   7   3    0.29    2.26
  -7  -7  -4   58.18    5.68
   7   7   4   61.24    5.61
   7   7   4   54.83    3.13
   7   7   4   46.82    2.69
  -7  -7  -5   65.75    5.97
   7   7   5   64.88    5.90
  -7  -7  -6    6.41    3.35
   7   7   6    0.87    2.48
   6   7  -8   19.15    4.08
  -6  -7   7    9.98    3.13
   6   7  -7    7.14    3.20
  -6  -7   6    7.72    2.99
   6   7  -6   10.05    3.28
  -6  -7   5   33.28    4.51
   6   7  -5   20.68    3.86
  -6  -7   4   32.04    4.44
   6   7  -4   29.20    4.22
  -6  -7   3   17.99    3.50
   6   7  -3   18.35    3.57
  -6  -7   2   15.87    3.28
   6   7  -2   15.95    3.20
  -6  -7   1   10.85    3.06
   6   7  -1   11.29    2.91
  -6  -7   0   43.40    4.81
   6   7   0   38.30    4.15
   6   7   0   39.17    4.08
  -6  -7  -1    3.50    2.48
   6   7   1    6.55    2.55
   6   7   1    4.95    2.18
  -6  -7  -2   55.63    5.24
   6   7   2   45.07    4.59
   6   7   2   45.80    4.15
  -6  -7  -3   94.80    6.26
   6   7   3   90.80    5.83
   6   7   3   88.98    3.35
   6   7   3   73.83    2.99
  -6  -7  -4   36.12    4.81
   6   7   4   31.75    4.30
  -6  -7  -5   62.48    5.46
   6   7   5   61.53    5.39
  -6  -7  -6   22.35    4.00
   6   7   6   25.85    4.15
  -6  -7  -7  100.05    6.63
   6   7   7   96.84    6.48
  -6  -7  -8   72.74    6.04
   6   7   8   74.85    6.26
  -6  -7  -9   11.21    3.35
  -6  -7 -10   26.07    3.13
  -6  -7 -10   25.85    2.77
   5   7 -10   55.99    6.04
   5   7  -9    4.44    3.06
  -5  -7   8   35.90    4.37
   5   7  -8   43.25    5.32
  -5  -7   7   15.44    3.28
   5   7  -7   16.60    3.64
  -5  -7   6   55.34    5.10
   5   7  -6   48.71    5.10
  -5  -7   5  164.05    7.21
   5   7  -5  149.71    7.14
  -5  -7   4   27.74    3.93
   5   7  -4   28.32    3.93
  -5  -7   3    6.19    2.55
   5   7  -3    5.83    2.48
  -5  -7   2   15.95    3.13
   5   7  -2   14.13    2.91
  -5  -7   1    1.89    2.11
   5   7  -1    1.31    1.67
   5   7  -1    1.09    1.97
  -5  -7   0   42.31    4.44
   5   7   0   36.33    3.71
   5   7   0   36.77    3.93
  -5  -7  -1    0.73    2.04
   5   7   1   -0.66    1.60
   5   7   1    4.51    2.11
  -5  -7  -2  164.49    7.14
   5   7   2  157.50    6.48
   5   7   2  161.14    6.19
   5   7   2  145.92    3.79
   5   7   2  136.96    3.57
  -5  -7  -3   36.26    4.44
   5   7   3   31.97    3.86
   5   7   3   31.24    3.42
   5   7   3   34.59    2.55
   5   7   3   28.11    2.26
  -5  -7  -4  126.41    6.55
   5   7   4  132.96    6.41
  -5  -7  -5  114.39    6.41
   5   7   5  113.88    6.19
  -5  -7  -6  109.73    6.33
   5   7   6  105.00    6.19
  -5  -7  -7   14.78    3.42
   5   7   7   10.56    2.91
  -5  -7  -8    8.37    2.99
   5   7   8    8.81    2.91
  -5  -7  -9   82.79    5.97
  -5  -7  -9   88.25    3.86
  -5  -7  -9   80.82    3.50
   5   7   9   85.27    6.33
  -5  -7 -10   11.65    3.28
  -5  -7 -10   13.69    1.67
  -5  -7 -10   12.60    1.67
   5   7  10    8.88    3.28
  -5  -7 -11   60.29    5.68
  -5  -7 -12    7.65    4.95
   4   7 -12   71.21    6.48
   4   7 -11   20.83    4.22
   4   7 -10    8.96    3.28
  -4  -7   9   23.66    3.64
   4   7  -9   24.10    4.15
  -4  -7   8   16.09    3.20
   4   7  -8   19.81    3.86
  -4  -7   7   10.05    2.77
   4   7  -7    8.37    2.77
  -4  -7   6  158.95    6.70
   4   7  -6  124.88    6.41
  -4  -7   5   10.56    2.84
   4   7  -5    9.17    2.69
  -4  -7   4    8.37    2.55
   4   7  -4    6.99    2.55
  -4  -7   3   45.73    4.30
   4   7  -3   41.72    4.08
  -4  -7   2   39.25    4.00
   4   7  -2   34.95    3.13
   4   7  -2   31.82    3.64
  -4  -7   1    7.86    2.48
   4   7  -1    7.79    2.04
   4   7  -1    6.77    2.18
  -4  -7   0    8.96    2.55
   4   7   0    7.28    2.11
   4   7   0    7.50    2.33
  -4  -7  -1   57.01    4.59
   4   7   1   60.36    4.15
   4   7   1   57.23    4.15
   4   7   1   48.71    2.11
   4   7   1   49.51    2.04
  -4  -7  -2  191.72    7.21
   4   7   2  199.95    6.84
   4   7   2  177.74    6.12
   4   7   2  194.20    4.51
   4   7   2  166.24    4.15
  -4  -7  -3  372.30    9.76
   4   7   3  355.63    9.10
   4   7   3  357.23    8.23
   4   7   3  361.09    6.63
   4   7   3  307.72    6.12
  -4  -7  -4  191.28    7.35
   4   7   4  185.02    7.06
   4   7   4  177.67    5.90
  -4  -7  -5   70.19    5.02
   4   7   5   78.71    5.10
  -4  -7  -6   36.41    4.22
   4   7   6   36.92    4.15
  -4  -7  -7   16.60    3.13
   4   7   7   16.60    3.20
  -4  -7  -8   32.91    4.15
   4   7   8   34.00    4.51
  -4  -7  -9   43.40    4.51
  -4  -7  -9   49.08    2.77
  -4  -7  -9   41.58    2.55
   4   7   9   43.54    4.88
  -4  -7 -10   19.44    3.57
   4   7  10   22.21    4.08
  -4  -7 -11   32.77    4.51
   4   7  11   31.67    4.59
  -4  -7 -12    8.37    3.93
   3   7 -13    5.17    3.13
   3   7 -12  114.17    7.06
   3   7 -11    6.12    3.13
  -3  -7  10   29.27    3.79
   3   7 -10   29.05    4.22
  -3  -7   9   22.28    3.57
   3   7  -9   21.92    3.79
  -3  -7   8   13.69    2.99
   3   7  -8   15.07    3.20
  -3  -7   7    6.99    2.55
   3   7  -7    7.06    2.55
  -3  -7   6   24.76    3.50
   3   7  -6   17.77    3.06
  -3  -7   5   64.51    4.51
   3   7  -5   56.36    4.37
  -3  -7   4   24.17    3.35
   3   7  -4   18.71    2.99
  -3  -7   3  259.80    7.72
   3   7  -3  244.00    7.50
  -3  -7   2   35.97    3.71
   3   7  -2   30.07    2.84
   3   7  -2   34.00    3.57
  -3  -7   1   65.10    4.44
   3   7  -1   69.90    3.79
   3   7  -1   60.65    4.08
  -3  -7   0  236.50    7.35
   3   7   0  244.58    6.55
   3   7   0  225.43    6.84
  -3  -7  -1  576.33   11.07
   3   7   1  567.37   10.05
   3   7   1  511.96    9.68
   3   7   1  496.38    6.33
   3   7   1  469.36    6.12
  -3  -7  -2   16.31    2.99
   3   7   2   16.60    2.69
   3   7   2   13.62    2.48
   3   7   2   15.29    1.82
   3   7   2   11.14    1.53
  -3  -7  -3  284.34    8.16
   3   7   3  272.25    7.57
   3   7   3  247.79    6.70
   3   7   3  269.34    7.21
  -3  -7  -4   30.29    3.71
   3   7   4   27.67    3.42
   3   7   4   27.38    2.91
  -3  -7  -5  162.45    6.48
  -3  -7  -5  156.70    5.24
   3   7   5  156.55    6.33
   3   7   5  151.60    5.68
  -3  -7  -6   39.10    3.93
  -3  -7  -6   39.90    3.35
   3   7   6   37.65    4.00
  -3  -7  -7   38.74    4.08
  -3  -7  -7   37.50    3.42
   3   7   7   37.79    4.08
  -3  -7  -8   48.20    4.30
  -3  -7  -8   46.89    3.93
  -3  -7  -8   54.03    2.84
  -3  -7  -8   48.79    2.69
   3   7   8   52.79    4.81
  -3  -7  -9  200.46    7.43
  -3  -7  -9  192.01    6.84
  -3  -7  -9  201.33    4.37
  -3  -7  -9  187.35    4.15
   3   7   9  200.68    8.01
  -3  -7 -10   28.54    3.79
  -3  -7 -10   30.15    3.79
   3   7  10   34.00    4.59
  -3  -7 -11    8.37    2.69
  -3  -7 -11   12.09    2.91
   3   7  11    8.81    3.06
  -3  -7 -12   65.82    5.39
   3   7  12   70.05    6.04
  -3  -7 -13   38.37    4.88
   3   7  13   37.14    5.46
  -3  -7 -14   11.80    3.50
  -2  -7  14  114.32    7.79
   2   7 -14  111.04    7.14
  -2  -7  13   45.36    5.53
   2   7 -13   29.05    4.30
  -2  -7  12   32.18    4.59
   2   7 -12   25.70    4.08
  -2  -7  11   69.25    5.17
   2   7 -11   68.15    5.53
  -2  -7  10  375.07    9.54
   2   7 -10  343.69    9.90
  -2  -7   9   33.93    4.08
   2   7  -9   30.36    3.93
  -2  -7   8  309.75    8.45
   2   7  -8  270.87    8.45
  -2  -7   7   75.00    4.73
   2   7  -7   77.26    5.02
  -2  -7   6   25.99    3.35
   2   7  -6   26.58    3.50
  -2  -7   5  109.22    5.17
   2   7  -5   96.12    5.10
  -2  -7   4   89.93    4.81
   2   7  -4   84.54    4.73
  -2  -7   3  259.88    7.28
   2   7  -3  228.78    5.32
   2   7  -3  221.79    6.84
  -2  -7   2    5.97    2.04
   2   7  -2    3.64    1.46
   2   7  -2    4.73    1.82
  -2  -7   1  169.08    6.04
   2   7  -1  163.18    4.95
   2   7  -1  155.02    5.53
  -2  -7   0   40.70    3.50
   2   7   0   36.55    2.99
   2   7   0   39.47    3.35
   2   7   0   33.86    1.75
   2   7   0   32.77    1.67
  -2  -7  -1  325.34    8.01
   2   7   1  310.26    7.14
   2   7   1  291.40    7.14
   2   7   1  284.27    5.02
   2   7   1  326.94    5.24
  -2  -7  -2  160.63    5.83
  -2  -7  -2  153.35    4.51
   2   7   2  165.14    5.61
   2   7   2  144.46    5.10
   2   7   2  154.73    4.15
   2   7   2  132.74    3.79
  -2  -7  -3  101.94    4.95
  -2  -7  -3  102.16    4.00
   2   7   3  111.77    4.95
   2   7   3   99.83    4.30
  -2  -7  -4  498.85    9.90
  -2  -7  -4  490.63    8.37
   2   7   4  499.51    9.83
   2   7   4  466.89    8.37
  -2  -7  -5   45.29    3.86
  -2  -7  -5   42.09    3.28
   2   7   5   43.62    3.79
   2   7   5   47.26    3.13
  -2  -7  -6   50.24    3.93
  -2  -7  -6   46.89    3.50
   2   7   6   50.53    4.08
  -2  -7  -7   41.43    3.71
  -2  -7  -7   44.56    3.64
  -2  -7  -7   47.18    2.69
  -2  -7  -7   46.09    2.55
   2   7   7   50.68    4.22
  -2  -7  -8   27.74    3.57
  -2  -7  -8   26.87    3.28
  -2  -7  -8   27.45    2.11
  -2  -7  -8   23.96    1.97
   2   7   8   25.56    3.57
  -2  -7  -9    1.82    1.82
  -2  -7  -9   -0.58    1.60
  -2  -7  -9    0.66    0.87
  -2  -7  -9    1.60    0.80
   2   7   9    2.18    2.04
  -2  -7 -10  105.14    5.53
  -2  -7 -10  100.70    5.46
   2   7  10  109.59    6.26
  -2  -7 -11   90.87    5.61
  -2  -7 -11  104.93    5.90
   2   7  11  107.47    6.33
  -2  -7 -12  151.96    7.06
   2   7  12  162.96    7.86
  -2  -7 -13   47.04    5.10
   2   7  13   46.38    5.39
  -2  -7 -14  125.90    7.28
   2   7  14  122.11    8.52
  -1  -7  14   72.74    6.19
   1   7 -14   87.30    6.77
   1   7 -14   66.99    5.68
  -1  -7  13    8.37    3.20
   1   7 -13    6.04    3.13
   1   7 -13    5.32    2.77
  -1  -7  12   36.70    4.66
   1   7 -12   44.93    5.24
   1   7 -12   37.65    4.66
  -1  -7  11  187.64    7.86
  -1  -7  11  199.66    7.21
   1   7 -11  197.69    8.01
   1   7 -11  175.12    7.35
  -1  -7  10   13.33    3.28
  -1  -7  10   13.47    2.84
   1   7 -10   11.58    2.91
  -1  -7   9  168.35    6.99
  -1  -7   9  166.60    6.41
   1   7  -9  145.63    6.41
  -1  -7   8  134.42    6.12
  -1  -7   8  131.07    5.75
   1   7  -8  125.31    5.90
  -1  -7   7   28.47    3.57
  -1  -7   7   22.79    3.06
   1   7  -7   24.68    3.35
  -1  -7   6   25.70    3.13
   1   7  -6   20.97    2.99
  -1  -7   5  149.71    4.73
  -1  -7   5  152.04    5.68
   1   7  -5  135.95    5.53
  -1  -7   4  447.52    6.92
  -1  -7   4  447.96    9.10
   1   7  -4  398.88    8.74
  -1  -7   3  576.91    8.01
  -1  -7   3  563.30   10.05
   1   7  -3  542.69    7.14
   1   7  -3  508.76    9.61
  -1  -7   2  556.23    9.90
   1   7  -2  557.11    7.72
   1   7  -2  521.94    9.47
  -1  -7   1  158.30    5.53
   1   7  -1  153.49    4.44
   1   7  -1  139.80    5.02
   1   7  -1  123.86    2.26
  -1  -7   0  145.78    5.32
   1   7   0  134.85    4.44
   1   7   0  128.37    4.81
   1   7   0  114.90    2.91
   1   7   0  110.61    2.84
  -1  -7  -1  321.04    7.50
   1   7   1  316.74    6.77
   1   7   1  282.16    6.77
   1   7   1  272.04    4.88
  -1  -7  -2  117.38    4.81
   1   7   2  116.58    4.51
   1   7   2  100.27    4.15
   1   7   2  110.39    3.50
   1   7   2  109.59    3.50
  -1  -7  -3   66.41    3.86
  -1  -7  -3   71.80    3.50
   1   7   3   73.76    3.93
   1   7   3   70.78    3.64
  -1  -7  -4   59.13    3.79
  -1  -7  -4   61.82    3.42
   1   7   4   63.79    3.93
   1   7   4   57.81    3.28
  -1  -7  -5    4.44    1.67
  -1  -7  -5    5.90    1.67
  -1  -7  -5    3.35    1.31
   1   7   5    5.32    1.97
   1   7   5    5.90    1.60
  -1  -7  -6   25.05    2.99
  -1  -7  -6   25.41    2.91
  -1  -7  -6   28.98    2.18
  -1  -7  -6   26.94    2.04
   1   7   6   25.49    3.20
   1   7   6   24.54    2.48
  -1  -7  -7  251.07    6.99
  -1  -7  -7  252.01    6.99
  -1  -7  -7  258.06    5.02
  -1  -7  -7  241.82    4.81
   1   7   7  257.47    7.72
  -1  -7  -8   69.90    4.22
  -1  -7  -8   67.86    4.22
  -1  -7  -8   79.51    2.69
  -1  -7  -8   65.82    2.40
   1   7   8   69.10    4.66
  -1  -7  -9  142.43    5.61
  -1  -7  -9  137.11    5.83
   1   7   9  150.00    6.55
  -1  -7 -10   31.38    3.42
  -1  -7 -10   36.70    3.93
   1   7  10   31.67    4.08
  -1  -7 -11   56.50    4.73
   1   7  11   62.04    5.17
  -1  -7 -12   19.66    3.71
   1   7  12   18.20    3.64
  -1  -7 -13   42.89    4.73
   1   7  13   40.56    4.81
  -1  -7 -14   37.50    4.95
   1   7  14   44.34    5.32
   0  -7  15    8.59    3.50
   0   7 -15    6.70    3.28
   0  -7  14   55.56    5.61
   0   7 -14   57.67    5.97
   0  -7  13    8.30    3.06
   0   7 -13    3.13    2.77
   0   7 -13    7.28    2.69
   0  -7  12   28.18    4.15
   0  -7  12   31.09    3.79
   0   7 -12   31.75    4.30
   0   7 -12   34.95    4.22
   0  -7  11   13.69    3.35
   0  -7  11   11.87    2.77
   0   7 -11   17.26    3.35
   0   7 -11   15.58    2.99
   0  -7  10   79.88    5.32
   0  -7  10   81.84    4.88
   0   7 -10   82.94    5.39
   0   7 -10   73.83    4.88
   0  -7   9  123.28    5.97
   0  -7   9  123.35    5.46
   0   7  -9  119.42    5.90
   0   7  -9  112.79    5.53
   0  -7   8   44.05    3.93
   0  -7   8   48.57    3.79
   0   7  -8   42.52    3.93
   0   7  -8   39.10    3.79
   0  -7   6   13.18    1.82
   0  -7   6   14.42    2.62
   0  -7   6   11.14    2.33
   0   7  -6   11.94    2.33
   0  -7   5  166.60    4.51
   0  -7   5  167.62    5.83
   0  -7   5  170.24    5.75
   0   7  -5  148.03    5.46
   0  -7   4   79.00    3.28
   0  -7   4   76.31    4.15
   0   7  -4   73.76    4.00
   0  -7   3  142.43    4.22
   0  -7   3  148.83    5.17
   0   7  -3  143.59    3.57
   0   7  -3  131.50    4.88
   0  -7   2  118.98    3.93
   0  -7   2  120.36    4.73
   0   7  -2  118.32    3.57
   0   7  -2  106.96    4.37
   0  -7   1  213.78    5.24
   0  -7   1  224.20    6.12
   0   7  -1  217.42    4.95
   0   7  -1  197.04    5.61
   0   7  -1  185.60    3.13
   0   7  -1  184.37    3.13
   0  -7   0  137.55    4.88
   0   7   0  125.17    4.08
   0   7   0  121.31    4.51
   0   7   0  121.46    3.06
   0   7   0  107.55    2.84
   0  -7  -1   79.73    3.93
   0   7   1   80.68    3.57
   0   7   1   75.44    2.69
   0   7   1   70.92    2.62
   0  -7  -2  222.38    5.97
   0   7   2  212.98    5.61
   0   7   2  209.49    4.51
   0   7   2  199.15    4.44
   0  -7  -3   44.49    3.13
   0   7   3   37.06    2.99
   0  -7  -4  134.05    4.81
   0  -7  -4  130.99    4.59
   0  -7  -4  130.70    3.79
   0  -7  -4  126.70    3.71
   0   7   4  141.26    5.10
   0  -7  -5    6.12    1.75
   0  -7  -5    8.23    1.89
   0  -7  -5    6.99    1.38
   0  -7  -5    6.33    1.17
   0   7   5    8.16    2.04
   0  -7  -6  199.80    5.83
   0  -7  -6  189.25    5.90
   0  -7  -6  238.98    4.73
   0  -7  -6  177.89    4.08
   0   7   6  188.66    6.26
   0  -7  -7  244.08    6.48
   0  -7  -7  243.20    6.84
   0  -7  -7  284.56    4.73
   0  -7  -7  239.63    4.30
   0   7   7  257.33    7.43
   0  -7  -8   36.41    3.13
   0  -7  -8   36.55    3.57
   0   7   8   38.52    3.79
   0  -7  -9   12.60    2.26
   0  -7  -9   12.31    2.62
   0   7   9    8.01    2.40
   0  -7 -10   45.44    4.15
   0   7  10   49.95    4.37
   0  -7 -11   64.59    4.88
   0   7  11   70.27    5.17
   0  -7 -12   54.25    4.95
   0   7  12   54.54    4.88
   0  -7 -13   42.74    4.88
   0   7  13   45.07    4.88
   0  -7 -14   38.88    4.95
   0   7  14   36.41    4.59
   0  -7 -15   13.54    3.42
   0   7  15   15.51    3.57
   1  -7  15   12.01    3.71
  -1   7 -15   11.50    3.71
   1  -7  14    2.04    2.69
  -1   7 -14    0.58    2.69
   1  -7  13   31.09    4.51
  -1   7 -13   31.82    4.44
  -1   7 -13   28.11    4.30
   1  -7  12   37.57    4.59
  -1   7 -12   44.85    4.95
  -1   7 -12   35.82    3.93
   1  -7  11    3.86    2.48
  -1   7 -11    1.67    2.26
  -1   7 -11    1.24    1.97
   1  -7  10   23.30    3.57
  -1   7 -10   22.06    3.35
  -1   7 -10   20.83    3.06
   1  -7   9    9.25    2.62
  -1   7  -9    7.65    2.48
  -1   7  -9    9.03    2.33
   1  -7   8    1.89    1.31
   1  -7   8    2.99    1.89
  -1   7  -8    2.33    1.89
  -1   7  -8    2.33    1.82
   1  -7   7   10.85    1.82
   1  -7   7    9.54    2.33
  -1   7  -7   12.23    2.48
  -1   7  -7    9.25    2.11
   1  -7   6  323.88    6.33
   1  -7   6  336.77    7.86
  -1   7  -6  326.72    7.79
  -1   7  -6  304.88    7.43
   1  -7   5  315.58    6.19
   1  -7   5  305.60    7.21
  -1   7  -5  305.89    7.21
  -1   7  -5  281.50    6.99
   1  -7   4  539.48    7.94
   1  -7   4  561.77    9.32
   1  -7   4  569.41    9.47
  -1   7  -4  549.02    5.61
  -1   7  -4  543.64    9.17
  -1   7  -4  504.90    8.96
   1  -7   3   49.37    2.77
   1  -7   3   51.70    3.20
   1  -7   3   52.43    3.28
  -1   7  -3   52.57    2.26
  -1   7  -3   49.30    3.20
   1  -7   2  810.57    9.76
   1  -7   2  842.98   11.14
  -1   7  -2  846.25    8.37
   1  -7   1   76.02    3.35
   1  -7   1   81.70    3.86
  -1   7  -1   74.85    2.99
  -1   7  -1   71.21    2.18
  -1   7  -1   66.63    2.11
   1  -7   0  434.12    7.43
   1  -7   0  456.99    8.08
  -1   7   0  437.40    6.92
  -1   7   0  414.75    5.53
  -1   7   0  370.77    5.24
   1  -7  -1  478.83    7.94
   1  -7  -1  492.66    8.30
  -1   7   1  498.64    7.72
  -1   7   1  499.73    6.48
  -1   7   1  432.67    6.04
   1  -7  -2  132.52    4.51
   1  -7  -2  117.81    3.50
  -1   7   2  140.31    4.51
  -1   7   2  134.56    3.64
  -1   7   2  120.73    3.50
   1  -7  -3  503.88    8.30
   1  -7  -3  526.82    7.06
   1  -7  -3  438.27    6.41
  -1   7   3  487.06    8.30
   1  -7  -4  126.99    4.37
   1  -7  -4  130.05    3.57
   1  -7  -4  113.96    3.35
  -1   7   4  126.62    4.66
   1  -7  -5   26.50    2.48
   1  -7  -5   26.14    2.62
   1  -7  -5   27.52    1.89
   1  -7  -5   24.83    1.75
  -1   7   5   28.83    2.91
   1  -7  -6  346.09    6.99
   1  -7  -6  327.74    7.50
   1  -7  -6  356.28    5.24
   1  -7  -6  316.89    4.88
  -1   7   6  353.37    8.01
   1  -7  -7   25.19    2.55
   1  -7  -7   21.04    2.77
   1  -7  -7   21.84    1.46
   1  -7  -7   22.50    1.38
  -1   7   7   24.10    3.06
   1  -7  -8   62.55    3.50
   1  -7  -8   57.96    4.08
  -1   7   8   63.79    4.30
   1  -7  -9  186.11    5.39
   1  -7  -9  170.61    6.41
  -1   7   9  188.23    6.84
   1  -7 -10   22.50    3.35
  -1   7  10   22.65    3.28
   1  -7 -11   16.53    3.13
  -1   7  11   13.91    2.91
   1  -7 -12   15.80    3.28
  -1   7  12   17.69    3.28
   1  -7 -13  157.94    7.43
  -1   7  13  169.51    7.50
   1  -7 -14   24.98    4.22
  -1   7  14   28.62    4.22
   1  -7 -15   13.40    3.57
  -1   7  15   17.26    3.71
  -1   7  16   12.67    3.57
  -2   7 -15    0.36    2.84
  -2   7 -14   28.91    4.37
  -2   7 -13    4.81    2.84
  -2   7 -12    5.61    2.62
  -2   7 -12    5.97    2.26
  -2   7 -11   85.41    5.46
  -2   7 -11   78.49    4.66
   2  -7  10  151.31    5.24
  -2   7 -10  155.02    6.55
  -2   7 -10  147.23    5.68
   2  -7   9  123.57    4.66
  -2   7  -9  121.24    5.61
  -2   7  -9  125.75    5.24
   2  -7   8   23.74    2.62
  -2   7  -8   25.92    3.20
  -2   7  -8   24.61    3.06
   2  -7   7  167.04    4.95
  -2   7  -7  159.25    5.75
  -2   7  -7  162.74    5.53
   2  -7   6  285.65    6.19
  -2   7  -6  296.28    7.21
  -2   7  -6  271.96    6.70
   2  -7   5  177.23    4.88
   2  -7   5  177.96    5.53
  -2   7  -5  176.65    5.46
  -2   7  -5  169.73    5.32
   2  -7   4  547.64    8.16
   2  -7   4  596.86    9.25
  -2   7  -4  598.54    5.75
  -2   7  -4  578.08    9.10
   2  -7   3   80.75    3.42
   2  -7   3   86.80    3.71
  -2   7  -3   89.42    2.69
  -2   7  -3   86.58    3.71
   2  -7   2  142.72    4.37
   2  -7   2  150.65    4.44
  -2   7  -2  135.73    4.51
  -2   7  -2  152.98    3.71
  -2   7  -2  149.12    4.44
  -2   7  -2  140.61    2.62
  -2   7  -2  128.08    2.48
   2  -7   1   44.05    2.69
   2  -7   1   48.42    2.69
   2  -7   1   45.29    2.91
  -2   7  -1   40.78    2.84
  -2   7  -1   47.77    2.48
  -2   7  -1   44.85    1.89
  -2   7  -1   38.23    1.75
   2  -7   0   39.39    2.62
   2  -7   0   40.63    2.77
   2  -7   0   36.99    2.11
   2  -7   0   36.55    2.04
  -2   7   0   38.01    2.84
  -2   7   0   36.77    2.48
  -2   7   0   40.05    2.04
  -2   7   0   34.59    1.82
   2  -7  -1  322.13    6.55
   2  -7  -1  339.68    6.63
   2  -7  -1  360.65    5.75
   2  -7  -1  313.32    5.32
  -2   7   1  320.09    6.70
  -2   7   1  330.14    6.19
  -2   7   1  336.84    5.32
  -2   7   1  291.04    4.95
   2  -7  -2   12.96    1.89
   2  -7  -2   15.29    2.11
   2  -7  -2   13.18    1.46
  -2   7   2   13.62    1.97
  -2   7   2   14.13    1.97
  -2   7   2   16.02    1.67
  -2   7   2   13.18    1.46
   2  -7  -3  170.02    4.73
   2  -7  -3  167.47    3.93
   2  -7  -3  161.43    3.79
  -2   7   3  165.80    4.95
  -2   7   3  166.53    4.95
  -2   7   3  178.91    6.26
   2  -7  -4  325.99    6.33
   2  -7  -4  315.65    5.17
   2  -7  -4  287.55    4.88
  -2   7   4  304.15    6.55
  -2   7   4  319.29    6.92
   2  -7  -5  120.36    4.00
   2  -7  -5  122.77    3.13
   2  -7  -5  113.52    2.99
  -2   7   5  114.83    4.22
  -2   7   5  125.82    4.73
   2  -7  -6  175.99    4.73
   2  -7  -6  172.35    5.61
   2  -7  -6  204.46    3.50
   2  -7  -6  159.17    3.06
  -2   7   6  166.67    5.02
  -2   7   6  173.66    5.68
   2  -7  -7   97.06    3.64
   2  -7  -7   94.08    4.59
  -2   7   7   95.97    4.66
   2  -7  -8  307.86    6.19
   2  -7  -8  307.28    7.94
  -2   7   8  331.67    8.30
   2  -7  -9  185.39    6.63
  -2   7   9  202.93    6.92
   2  -7 -10  216.11    7.43
  -2   7  10  221.28    7.43
   2  -7 -11   26.07    3.79
  -2   7  11   25.85    3.57
   2  -7 -12   15.15    3.28
  -2   7  12   15.73    3.13
   2  -7 -13   74.13    5.61
  -2   7  13   76.67    5.46
   2  -7 -14   49.88    5.24
  -2   7  14   51.55    4.95
   2  -7 -15   21.48    4.15
  -2   7  15   18.28    3.57
  -2   7  16   17.26    3.64
  -3   7 -15    6.84    3.35
  -3   7 -14   20.90    3.93
  -3   7 -13   44.27    5.02
   3  -7  12    2.18    1.75
  -3   7 -12   -0.07    2.26
   3  -7  11   57.09    3.93
  -3   7 -11   66.48    4.95
  -3   7 -11   54.17    3.93
   3  -7  10    3.06    1.67
  -3   7 -10    4.22    2.18
  -3   7 -10    3.20    1.75
   3  -7   9   32.18    3.13
  -3   7  -9   30.80    3.64
  -3   7  -9   31.46    3.20
   3  -7   8   67.86    3.71
  -3   7  -8   64.37    4.22
  -3   7  -8   61.67    3.71
   3  -7   7   56.36    3.42
  -3   7  -7   61.97    3.93
  -3   7  -7   61.53    3.64
   3  -7   6  716.28    9.98
  -3   7  -6  776.35   10.05
  -3   7  -6  764.70   11.07
   3  -7   5  241.24    5.83
  -3   7  -5  259.29    5.97
  -3   7  -5  269.12    4.73
  -3   7  -5  243.20    6.12
   3  -7   4   27.09    2.40
  -3   7  -4   27.38    2.48
  -3   7  -4   27.16    1.67
  -3   7  -4   28.03    2.48
   3  -7   3  193.10    5.10
  -3   7  -3  202.93    5.32
  -3   7  -3  204.32    3.93
  -3   7  -3  199.22    5.10
  -3   7  -3  190.27    2.55
  -3   7  -3  173.95    2.55
   3  -7   2   39.76    2.69
   3  -7   2   41.80    2.62
  -3   7  -2   38.08    2.77
  -3   7  -2   43.11    2.26
  -3   7  -2   41.07    2.55
  -3   7  -2   40.70    1.75
  -3   7  -2   35.10    1.60
   3  -7   1 1166.35   12.01
   3  -7   1 1250.89   11.07
   3  -7   1  980.82   14.05
  -3   7  -1 1163.58   12.23
  -3   7  -1 1215.86   10.49
  -3   7  -1 1207.56   10.85
  -3   7  -1 1201.08    9.03
  -3   7  -1 1046.57    8.45
   3  -7   0 1701.97   14.56
   3  -7   0 1752.94   12.45
   3  -7   0 1669.72   12.01
   3  -7   0 1619.47   11.80
  -3   7   0 1644.89   14.56
  -3   7   0 1701.68   13.03
  -3   7   0 1744.64   11.58
  -3   7   0 1486.81   10.70
   3  -7  -1   44.64    2.77
   3  -7  -1   44.56    2.69
   3  -7  -1   39.83    2.04
  -3   7   1   42.09    2.77
  -3   7   1   42.52    2.62
  -3   7   1   45.07    2.18
  -3   7   1   36.48    1.89
   3  -7  -2  192.74    5.24
   3  -7  -2  207.45    5.02
   3  -7  -2  195.51    4.15
   3  -7  -2  188.15    4.08
  -3   7   2  186.41    5.10
  -3   7   2  191.72    5.02
  -3   7   2  208.61    4.44
  -3   7   2  177.09    4.00
   3  -7  -3  333.71    6.92
   3  -7  -3  337.79    6.19
   3  -7  -3  328.76    5.17
   3  -7  -3  302.98    4.95
  -3   7   3  324.10    6.63
  -3   7   3  322.13    6.63
   3  -7  -4   12.67    1.75
   3  -7  -4    9.76    1.24
   3  -7  -4    9.83    1.17
  -3   7   4   10.63    1.82
  -3   7   4   11.50    1.97
   3  -7  -5   27.23    2.18
   3  -7  -5   25.19    1.53
   3  -7  -5   23.45    1.38
  -3   7   5   20.68    2.33
  -3   7   5   22.72    2.55
   3  -7  -6   14.85    1.82
   3  -7  -6   15.44    2.33
  -3   7   6   14.05    2.11
  -3   7   6   15.80    2.48
   3  -7  -7  210.29    4.73
   3  -7  -7  205.05    6.33
  -3   7   7  198.57    5.46
  -3   7   7  210.43    6.41
   3  -7  -8  186.77    6.41
  -3   7   8  188.74    5.39
  -3   7   8  182.26    6.26
   3  -7  -9   26.80    3.42
  -3   7   9   29.93    2.77
  -3   7   9   28.98    3.42
   3  -7 -10  229.80    7.57
  -3   7  10  233.01    7.50
   3  -7 -11    4.08    2.26
  -3   7  11    3.28    2.18
   3  -7 -12   70.56    5.32
  -3   7  12   67.06    4.88
   3  -7 -13   29.85    4.44
  -3   7  13   35.32    4.22
   3  -7 -14    8.16    2.99
  -3   7  14    5.83    2.48
   3  -7 -15   16.46    3.86
  -3   7  15   16.46    3.42
  -3   7  16    1.75    2.33
  -4   7 -15   34.08    4.81
  -4   7 -14   18.57    3.86
   4  -7  13    2.69    2.11
  -4   7 -13    2.11    2.62
   4  -7  12    2.62    1.97
  -4   7 -12    1.17    2.40
   4  -7  11    7.06    2.18
  -4   7 -11    8.66    2.77
   4  -7  10    7.14    2.11
  -4   7 -10    5.68    2.48
  -4   7 -10    8.01    2.04
   4  -7   9  142.86    5.39
  -4   7  -9  146.72    5.97
  -4   7  -9  143.23    5.17
   4  -7   8  177.67    5.75
  -4   7  -8  190.19    5.24
  -4   7  -8  188.66    6.33
  -4   7  -8  186.04    5.68
   4  -7   7  340.63    7.50
  -4   7  -7  390.21    7.21
  -4   7  -7  377.76    8.23
   4  -7   6  126.33    4.59
  -4   7  -6  138.13    4.51
  -4   7  -6  129.10    4.95
   4  -7   5  143.88    4.73
  -4   7  -5  160.85    4.81
  -4   7  -5  146.58    4.88
   4  -7   4  209.49    5.53
  -4   7  -4  223.69    5.53
  -4   7  -4  212.62    5.46
   4  -7   3  251.79    5.90
  -4   7  -3  254.20    5.90
  -4   7  -3  256.02    5.53
  -4   7  -3  273.35    3.79
  -4   7  -3  225.43    3.50
   4  -7   2  151.45    4.66
  -4   7  -2  158.81    4.22
  -4   7  -2  167.77    3.42
  -4   7  -2  136.60    3.06
   4  -7   1  319.73    6.55
   4  -7   1  225.87    4.51
   4  -7   1  303.64    5.17
  -4   7  -1  215.60    5.46
  -4   7  -1  334.51    5.61
  -4   7  -1  365.97    5.32
  -4   7  -1  283.61    4.66
   4  -7   0   90.22    3.71
   4  -7   0   94.51    2.99
   4  -7   0   88.98    2.91
  -4   7   0   89.71    3.71
  -4   7   0   93.64    2.55
  -4   7   0   93.28    2.91
  -4   7   0   96.04    2.99
  -4   7   0   80.10    2.69
   4  -7  -1   87.45    3.64
   4  -7  -1   92.47    2.69
   4  -7  -1   87.16    2.91
   4  -7  -1   84.32    2.77
  -4   7   1   79.15    3.50
  -4   7   1   86.14    2.77
  -4   7   1   85.99    2.84
   4  -7  -2  209.05    5.46
   4  -7  -2  203.23    4.15
   4  -7  -2  206.36    4.15
  -4   7   2  212.84    5.46
  -4   7   2  216.04    4.51
  -4   7   2  206.28    4.37
  -4   7   2  177.16    4.00
   4  -7  -3  142.57    4.66
   4  -7  -3  143.81    4.00
   4  -7  -3  138.42    3.35
   4  -7  -3  128.74    3.13
  -4   7   3  143.52    4.59
  -4   7   3  142.64    4.00
   4  -7  -4   98.81    4.08
   4  -7  -4  104.27    3.42
   4  -7  -4   94.95    2.62
   4  -7  -4   97.94    2.62
  -4   7   4  100.48    3.93
  -4   7   4  100.99    3.79
   4  -7  -5  257.62    5.02
   4  -7  -5  261.33    3.42
   4  -7  -5  227.98    3.20
  -4   7   5  202.72    5.39
  -4   7   5  249.83    5.97
  -4   7   5  251.21    6.41
   4  -7  -6  362.76    5.68
  -4   7   6  335.53    6.92
  -4   7   6  354.03    7.43
  -4   7   6  337.64    7.65
   4  -7  -7  265.77    7.21
  -4   7   7  263.30    6.26
  -4   7   7  264.46    6.92
  -4   7   7  265.12    7.14
   4  -7  -8  213.71    6.77
  -4   7   8  219.76    5.83
  -4   7   8  217.21    6.84
   4  -7  -9  288.49    8.08
  -4   7   9  291.62    6.55
  -4   7   9  292.50    8.08
   4  -7 -10   40.34    4.08
  -4   7  10   44.05    4.22
   4  -7 -11   86.72    5.46
  -4   7  11   86.80    5.32
   4  -7 -12    2.84    2.33
  -4   7  12    5.83    2.40
   4  -7 -13    3.79    2.55
  -4   7  13    7.14    2.62
   4  -7 -14   -0.51    2.33
  -4   7  14   -0.44    1.82
   4  -7 -15   32.55    4.88
  -4   7  15   32.11    4.30
  -4   7  16   27.60    4.15
   5  -7  15   68.88    5.53
  -5   7 -15   80.02    6.70
   5  -7  14   37.94    4.44
  -5   7 -14   39.98    5.10
   5  -7  13  137.33    6.41
  -5   7 -13  151.09    7.43
   5  -7  12   71.65    4.88
  -5   7 -12   70.78    5.39
   5  -7  11   31.97    3.71
  -5   7 -11   36.33    4.30
   5  -7  10  188.15    6.55
  -5   7 -10  192.38    7.14
  -5   7 -10  184.00    5.75
   5  -7   9   90.65    4.73
  -5   7  -9   91.53    5.02
  -5   7  -9  100.70    4.37
   5  -7   8   78.64    4.30
  -5   7  -8   91.24    3.86
  -5   7  -8   85.78    4.66
   5  -7   7   43.11    3.42
  -5   7  -7   51.41    3.20
  -5   7  -7   52.14    3.71
   5  -7   6  232.13    6.33
  -5   7  -6  262.06    6.04
  -5   7  -6  237.16    6.41
   5  -7   5   12.82    2.11
  -5   7  -5   14.93    2.04
  -5   7  -5   14.13    2.11
   5  -7   4  391.38    7.65
  -5   7  -4  455.53    7.79
  -5   7  -4  412.71    7.43
  -5   7  -4  446.79    4.66
  -5   7  -4  384.46    4.30
   5  -7   3   20.32    2.40
   5  -7   3   24.76    1.24
  -5   7  -3   29.05    2.55
  -5   7  -3   23.88    2.26
  -5   7  -3   24.47    1.60
  -5   7  -3   19.15    1.38
   5  -7   2    4.30    1.38
   5  -7   2    3.79    0.87
  -5   7  -2    4.73    1.53
  -5   7  -2    3.71    1.24
  -5   7  -2    3.35    0.95
  -5   7  -2    4.15    0.95
   5  -7   1  162.38    4.88
   5  -7   1  173.23    3.35
   5  -7   1  169.29    4.08
   5  -7   1  150.58    3.79
  -5   7  -1  163.69    4.88
  -5   7  -1  162.23    3.93
  -5   7  -1  140.61    3.50
   5  -7   0   22.43    2.33
   5  -7   0   21.99    1.75
   5  -7   0   20.02    1.67
   5  -7   0   20.90    1.60
  -5   7   0   24.03    2.40
  -5   7   0   22.35    1.67
  -5   7   0   22.06    1.67
  -5   7   0   18.49    1.46
   5  -7  -1   20.32    2.26
   5  -7  -1   23.01    1.60
   5  -7  -1   24.32    1.97
   5  -7  -1   20.61    1.67
   5  -7  -1   21.41    1.67
  -5   7   1   21.99    2.40
  -5   7   1   24.90    1.60
  -5   7   1   20.10    1.60
   5  -7  -2  135.14    4.51
   5  -7  -2  136.31    3.86
   5  -7  -2  131.29    3.35
   5  -7  -2  132.09    3.28
  -5   7   2  135.73    4.59
   5  -7  -3  283.76    6.41
   5  -7  -3  273.64    5.68
   5  -7  -3  290.02    4.51
   5  -7  -3  260.17    4.22
  -5   7   3  271.09    6.26
  -5   7   3  258.86    5.46
   5  -7  -4   28.62    2.62
   5  -7  -4   28.11    2.04
   5  -7  -4   26.21    2.55
   5  -7  -4   26.65    1.46
   5  -7  -4   25.19    1.38
  -5   7   4   25.41    2.62
  -5   7   4   27.01    2.48
   5  -7  -5  394.95    7.86
   5  -7  -5  394.73    5.75
   5  -7  -5  387.08    7.57
  -5   7   5  388.10    7.57
  -5   7   5  389.49    7.50
   5  -7  -6  185.10    3.93
   5  -7  -6  179.56    5.61
  -5   7   6  187.64    5.46
  -5   7   6  182.04    5.61
   5  -7  -7  449.85    9.17
   5  -7  -7  448.98    8.96
  -5   7   7  454.58    8.23
  -5   7   7  462.81    9.03
   5  -7  -8 1166.78   15.00
   5  -7  -8 1160.16   14.78
  -5   7   8 1218.70   13.25
  -5   7   8 1191.83   14.93
  -5   7   8 1155.57   14.93
   5  -7  -9  320.09    8.52
  -5   7   9  335.68    7.21
  -5   7   9  329.85    8.52
  -5   7   9  328.76    8.52
   5  -7 -10    2.55    2.18
  -5   7  10    4.00    2.26
  -5   7  10    5.68    2.18
   5  -7 -11  107.62    5.97
  -5   7  11   98.01    5.61
   5  -7 -12   26.65    4.00
  -5   7  12   33.64    4.15
   5  -7 -13    1.09    2.40
  -5   7  13    0.95    2.04
   5  -7 -14    5.90    2.91
  -5   7  14    7.94    2.77
   5  -7 -15    9.10    3.20
  -5   7  15    9.10    3.06
  -5   7  16   31.46    4.37
   6  -7  16   49.66    5.32
   6  -7  15   34.88    4.59
  -6   7 -15   38.96    5.32
   6  -7  14    5.90    2.62
  -6   7 -14    5.90    3.06
   6  -7  13  100.34    5.90
  -6   7 -13  109.30    6.70
   6  -7  12   26.07    3.71
  -6   7 -12   27.82    4.15
   6  -7  11  168.42    6.70
  -6   7 -11  183.78    7.35
   6  -7  10    1.60    1.82
  -6   7 -10    1.67    2.04
   6  -7   9  151.09    6.04
  -6   7  -9  156.99    6.26
   6  -7   8   55.48    4.00
  -6   7  -8   64.00    3.50
  -6   7  -8   57.01    4.08
   6  -7   7  307.50    7.72
  -6   7  -7  362.76    7.21
  -6   7  -7  323.44    7.86
   6  -7   6  528.27    9.68
  -6   7  -6  611.28    9.25
  -6   7  -6  539.63    9.47
   6  -7   5  179.12    5.68
  -6   7  -5  201.48    5.53
  -6   7  -5  179.63    5.39
  -6   7  -5  202.50    3.06
   6  -7   4  332.62    7.35
   6  -7   4  329.49    4.30
  -6   7  -4  358.76    7.21
  -6   7  -4  334.22    6.77
  -6   7  -4  373.76    5.02
  -6   7  -4  317.69    4.59
   6  -7   3  463.39    8.45
   6  -7   3  474.46    5.39
  -6   7  -3  503.88    8.45
  -6   7  -3  461.06    7.43
  -6   7  -3  523.90    6.41
  -6   7  -3  426.69    5.75
   6  -7   2   46.02    3.13
   6  -7   2   51.77    2.18
  -6   7  -2   53.15    3.20
  -6   7  -2   46.46    2.62
  -6   7  -2   52.86    2.40
  -6   7  -2   42.09    2.11
   6  -7   1   97.28    4.08
   6  -7   1  103.47    3.06
   6  -7   1   97.21    3.20
   6  -7   1   72.31    2.77
  -6   7  -1   96.84    3.20
  -6   7  -1  108.49    3.28
  -6   7  -1   89.64    2.99
   6  -7   0  393.64    7.50
   6  -7   0  405.00    5.97
   6  -7   0  408.13    6.12
   6  -7   0  382.50    5.90
  -6   7   0  403.32    7.65
  -6   7   0  392.84    5.46
  -6   7   0  383.81    6.04
  -6   7   0  330.00    5.53
   6  -7  -1  596.86    9.17
   6  -7  -1  604.14    7.72
   6  -7  -1  661.30    7.43
   6  -7  -1  598.54    7.06
  -6   7   1  602.54    9.32
  -6   7   1  596.28    5.90
   6  -7  -2  803.07   10.63
   6  -7  -2  804.82    5.75
   6  -7  -2  799.58    9.32
   6  -7  -2  813.71    7.79
   6  -7  -2  746.42    7.43
  -6   7   2  775.26   10.56
  -6   7   2  790.48    5.68
   6  -7  -3  413.37    7.79
   6  -7  -3  402.52    7.14
   6  -7  -3  382.64    4.88
   6  -7  -3  380.24    4.88
  -6   7   3  386.36    7.65
   6  -7  -4 1135.55   12.89
   6  -7  -4 1130.45   12.31
   6  -7  -4  986.71    6.12
   6  -7  -4 1007.32    6.12
  -6   7   4 1058.07   12.52
   6  -7  -5  581.64    9.47
   6  -7  -5  587.32    6.77
   6  -7  -5  599.05    9.54
  -6   7   5  579.02    9.39
   6  -7  -6   28.91    2.91
   6  -7  -6   31.82    3.13
  -6   7   6   31.02    2.91
  -6   7   6   27.52    2.99
   6  -7  -7  313.90    7.86
   6  -7  -7  323.52    7.86
  -6   7   7  332.40    7.35
  -6   7   7  309.17    7.72
   6  -7  -8  516.69   10.27
   6  -7  -8  522.52   10.27
  -6   7   8  537.15    9.25
  -6   7   8  514.65   10.19
   6  -7  -9  228.35    7.35
   6  -7  -9  232.21    7.57
  -6   7   9  228.71    6.33
  -6   7   9  218.59    7.28
   6  -7 -10  149.05    6.48
   6  -7 -10  164.20    6.84
  -6   7  10  167.33    6.19
  -6   7  10  159.68    6.63
  -6   7  10  153.78    6.41
   6  -7 -11    7.06    2.77
  -6   7  11    7.50    2.77
  -6   7  11    7.35    2.62
   6  -7 -12   37.35    4.59
  -6   7  12   36.04    4.37
  -6   7  12   37.43    4.37
   6  -7 -13   23.96    3.93
  -6   7  13   32.62    4.66
  -6   7  13   27.52    3.93
   6  -7 -14    7.28    3.06
  -6   7  14   10.41    2.99
   6  -7 -15   12.38    3.57
  -6   7  15   14.56    3.42
  -6   7  16    9.90    3.20
   7  -7  15   12.45    3.35
  -7   7 -15    8.08    4.59
   7  -7  14   35.68    4.51
  -7   7 -14   38.88    5.02
   7  -7  13   39.17    4.51
  -7   7 -13   40.56    5.02
   7  -7  12   60.00    4.95
  -7   7 -12   59.56    5.32
   7  -7  11   64.15    4.88
  -7   7 -11   61.60    5.02
   7  -7  10   45.73    4.22
  -7   7 -10   48.20    4.51
   7  -7   9   13.76    2.77
  -7   7  -9   11.14    2.77
   7  -7   8   32.69    3.64
  -7   7  -8   37.86    3.13
  -7   7  -8   36.63    3.71
   7  -7   7  239.27    7.21
  -7   7  -7  278.74    6.63
  -7   7  -7  257.84    7.21
   7  -7   6  188.23    6.26
  -7   7  -6  211.38    5.90
  -7   7  -6  183.86    5.97
   7  -7   5   10.27    2.11
  -7   7  -5    9.32    1.97
  -7   7  -5   10.85    2.18
  -7   7  -5   13.03    1.46
  -7   7  -5   10.85    1.31
   7  -7   4  125.75    4.95
   7  -7   4  126.84    3.42
  -7   7  -4  140.10    4.88
  -7   7  -4  128.52    4.51
  -7   7  -4  142.57    3.57
  -7   7  -4  125.90    3.35
   7  -7   3   29.93    2.91
   7  -7   3   33.86    2.18
  -7   7  -3   35.68    2.99
  -7   7  -3   32.55    2.62
  -7   7  -3   33.86    2.11
  -7   7  -3   29.71    1.89
   7  -7   2  214.88    5.97
   7  -7   2  218.88    4.59
  -7   7  -2  229.88    6.12
  -7   7  -2  214.80    5.02
  -7   7  -2  217.79    4.73
  -7   7  -2  193.18    4.37
   7  -7   1   87.45    4.00
   7  -7   1   84.90    3.20
   7  -7   1   79.15    3.06
   7  -7   1   78.20    2.91
  -7   7  -1   81.48    4.00
  -7   7  -1   81.92    3.13
  -7   7  -1   78.93    3.20
   7  -7   0  131.07    4.73
   7  -7   0  134.05    4.00
   7  -7   0  131.58    3.71
   7  -7   0  123.57    3.50
  -7   7   0  139.29    4.95
  -7   7   0  128.66    3.42
   7  -7  -1  227.25    5.97
   7  -7  -1  219.83    5.17
   7  -7  -1  240.94    4.59
   7  -7  -1  222.59    4.37
  -7   7   1  211.82    5.97
  -7   7   1  219.25    3.86
   7  -7  -2  114.25    4.44
   7  -7  -2  109.66    4.08
   7  -7  -2  114.90    3.06
   7  -7  -2  112.06    2.99
  -7   7   2  113.74    4.59
   7  -7  -3  151.67    5.02
   7  -7  -3  146.94    4.81
   7  -7  -3  135.14    2.84
   7  -7  -3  141.48    2.84
  -7   7   3  146.28    5.17
   7  -7  -4   93.42    4.15
   7  -7  -4   91.02    4.15
  -7   7   4   81.41    4.15
   7  -7  -5  165.73    5.39
   7  -7  -5  163.25    5.53
  -7   7   5  159.54    5.46
   7  -7  -6   12.52    2.18
   7  -7  -6   12.16    2.55
  -7   7   6   11.72    2.26
   7  -7  -8   47.62    4.08
   7  -7  -8   51.12    4.22
  -7   7   8   44.85    3.57
  -7   7   8   42.52    3.86
   7  -7  -9  114.76    5.68
   7  -7  -9  120.95    5.97
  -7   7   9  121.89    5.02
  -7   7   9  121.89    5.90
   7  -7 -10   89.78    5.46
   7  -7 -10   96.63    5.75
  -7   7  10   88.69    4.51
  -7   7  10   89.13    5.46
   7  -7 -11   13.18    3.13
   7  -7 -11   15.22    3.35
  -7   7  11   18.13    3.50
   7  -7 -12   32.26    4.30
   7  -7 -12   36.77    4.66
  -7   7  12   30.87    4.44
  -7   7  12   27.60    3.71
   7  -7 -13    1.89    2.55
  -7   7  13    2.18    2.40
  -7   7  13    7.28    2.69
   7  -7 -14   53.74    5.46
  -7   7  14   52.43    5.46
  -7   7  14   56.14    5.24
   7  -7 -15    7.57    3.06
  -7   7  15    5.83    2.77
   8  -7  14    9.61    3.20
  -8   7 -14   10.41    3.50
   8  -7  13    1.67    2.33
  -8   7 -13    3.35    2.84
   8  -7  12   12.16    3.06
  -8   7 -12   13.40    3.42
   8  -7  11  103.47    5.97
  -8   7 -11  114.25    6.33
   8  -7  10   18.20    3.13
  -8   7 -10   22.43    3.64
   8  -7   9   70.99    4.95
  -8   7  -9   67.35    4.81
   8  -7   8  160.70    6.48
  -8   7  -8  172.43    5.61
  -8   7  -8  153.78    6.26
   8  -7   7  137.47    5.90
  -8   7  -7  150.22    5.32
  -8   7  -7  143.08    5.83
   8  -7   6  481.38    9.98
  -8   7  -6  539.63    9.47
  -8   7  -6  490.48    9.54
  -8   7  -6  495.29    5.75
  -8   7  -6  521.57    5.90
   8  -7   5  128.30    5.39
   8  -7   5  125.39    3.93
  -8   7  -5  137.91    5.17
  -8   7  -5  126.48    4.95
  -8   7  -5  146.58    3.71
  -8   7  -5  121.67    3.35
   8  -7   4  158.37    5.75
   8  -7   4  156.99    4.30
  -8   7  -4  164.12    5.53
  -8   7  -4  154.95    5.10
  -8   7  -4  167.84    4.22
  -8   7  -4  148.91    3.93
   8  -7   3    1.09    1.53
   8  -7   3    0.95    1.09
  -8   7  -3    1.97    1.60
  -8   7  -3    2.11    1.38
  -8   7  -3    1.02    1.02
  -8   7  -3    1.67    0.87
   8  -7   2  365.53    7.94
   8  -7   2  365.17    6.48
  -8   7  -2  383.88    8.16
  -8   7  -2  363.78    6.70
   8  -7   1  387.67    8.08
   8  -7   1  386.94    6.84
   8  -7   1  395.09    7.50
   8  -7   1  348.13    6.12
  -8   7  -1  382.57    8.16
  -8   7  -1  376.02    6.33
   8  -7   0   96.84    4.37
   8  -7   0   98.88    3.93
   8  -7   0  101.50    3.35
   8  -7   0  100.41    3.35
  -8   7   0  105.87    4.66
  -8   7   0   98.37    3.28
   8  -7  -1  133.69    4.95
   8  -7  -1  130.48    4.51
   8  -7  -1  129.10    3.50
   8  -7  -1  131.58    3.50
  -8   7   1  129.61    5.10
  -8   7   1  127.43    3.28
   8  -7  -2   47.11    3.35
   8  -7  -2   46.60    3.28
   8  -7  -2   44.20    2.11
   8  -7  -2   45.80    2.11
  -8   7   2   52.14    3.64
   8  -7  -3  449.12    8.37
   8  -7  -3  428.52    8.23
   8  -7  -3  404.12    4.08
   8  -7  -3  401.79    4.08
  -8   7   3  428.37    8.81
   8  -7  -4  204.83    5.90
   8  -7  -4  206.14    6.19
  -8   7   4  201.99    6.33
   8  -7  -5   94.73    4.37
   8  -7  -5   89.49    4.59
  -8   7   5   93.28    4.66
   8  -7  -6   99.97    4.51
   8  -7  -6   92.40    4.88
  -8   7   6   81.41    4.51
   8  -7  -7   13.76    2.48
   8  -7  -7   15.07    2.77
   8  -7  -7   12.01    2.69
  -8   7   7   13.40    2.55
   8  -7  -8   22.57    3.28
   8  -7  -8   29.05    3.79
  -8   7   8   21.41    2.99
   8  -7  -9    5.32    2.33
   8  -7  -9    5.75    2.62
  -8   7   9    8.16    2.18
   8  -7 -10   51.63    4.66
   8  -7 -10   55.92    5.10
  -8   7  10   50.90    4.00
  -8   7  10   51.70    4.66
   8  -7 -11    3.35    2.40
   8  -7 -11    2.48    2.62
  -8   7  11    2.48    2.55
   8  -7 -12    2.40    2.48
   8  -7 -12    1.97    2.62
  -8   7  12    5.83    2.91
   8  -7 -13    7.28    2.91
   8  -7 -13   12.38    3.50
  -8   7  13   11.36    3.35
  -8   7  13    9.32    2.91
   8  -7 -14   20.10    3.93
   8  -7 -14   19.44    4.15
  -8   7  14   17.48    3.93
  -8   7  14   25.49    4.22
   8  -7 -15   26.87    4.59
  -8   7  15   21.55    4.08
   9  -7  14    3.28    3.28
   9  -7  13   -0.22    2.26
  -9   7 -13   -0.07    2.55
   9  -7  12   36.99    4.81
  -9   7 -12   39.54    5.10
   9  -7  11   14.34    3.28
  -9   7 -11   14.05    3.35
   9  -7  10   16.46    3.42
  -9   7 -10   16.67    3.35
   9  -7   9   34.30    4.30
  -9   7  -9   39.76    4.30
   9  -7   8   69.10    4.88
  -9   7  -8   75.29    4.30
  -9   7  -8   71.21    4.88
   9  -7   7   19.95    3.06
  -9   7  -7   25.41    3.13
  -9   7  -7   22.57    3.35
  -9   7  -7   21.48    1.60
  -9   7  -7   22.14    1.67
   9  -7   6  143.52    6.12
  -9   7  -6  166.45    5.83
  -9   7  -6  145.92    5.75
  -9   7  -6  153.57    3.86
  -9   7  -6  173.95    4.08
   9  -7   5   23.01    3.28
   9  -7   5   22.94    2.55
  -9   7  -5   26.21    3.13
  -9   7  -5   25.05    3.06
  -9   7  -5   23.23    2.11
  -9   7  -5   19.66    1.89
   9  -7   4  120.73    5.32
   9  -7   4  122.33    4.37
  -9   7  -4  127.21    5.32
  -9   7  -4  113.81    4.73
  -9   7  -4  124.15    4.08
   9  -7   3  142.86    5.68
   9  -7   3  132.74    4.59
  -9   7  -3  140.75    5.53
  -9   7  -3  131.72    4.73
   9  -7   2   60.36    4.00
   9  -7   2   60.65    3.42
  -9   7  -2   64.30    4.15
  -9   7  -2   56.87    3.28
   9  -7   1   95.39    4.59
   9  -7   1   87.09    4.00
   9  -7   1   95.97    4.81
   9  -7   1   93.28    3.50
  -9   7  -1   97.28    4.88
  -9   7  -1   90.73    3.71
   9  -7   0  239.12    6.63
   9  -7   0  235.41    6.19
   9  -7   0  236.50    4.95
   9  -7   0  222.09    4.81
  -9   7   0  241.89    7.06
  -9   7   0  223.83    5.02
   9  -7  -1  193.91    5.97
   9  -7  -1  198.64    5.90
   9  -7  -1  184.59    4.08
   9  -7  -1  193.25    4.22
  -9   7   1  205.85    6.63
   9  -7  -2  416.57    8.37
   9  -7  -2  416.50    8.45
   9  -7  -2  388.18    4.95
   9  -7  -2  398.73    4.95
  -9   7   2  401.28    8.96
   9  -7  -3    8.52    2.04
   9  -7  -3   10.63    2.40
  -9   7   3   10.12    2.33
   9  -7  -4  170.53    5.53
   9  -7  -4  165.51    6.04
  -9   7   4  162.09    6.12
   9  -7  -5  126.04    4.95
   9  -7  -5  116.87    5.46
  -9   7   5  109.37    5.32
   9  -7  -6  415.63    8.45
   9  -7  -6  390.80    9.32
  -9   7   6  395.82    9.17
   9  -7  -7   59.78    3.86
   9  -7  -7   59.49    4.37
   9  -7  -7   61.60    4.73
  -9   7   7   61.89    4.44
   9  -7  -8   30.44    3.71
   9  -7  -8   36.99    4.44
  -9   7   8   33.06    3.79
   9  -7  -9   31.31    3.86
   9  -7  -9   36.92    4.51
  -9   7   9   33.06    3.79
   9  -7 -10   11.80    2.91
   9  -7 -10   13.83    3.42
  -9   7  10   14.05    2.84
   9  -7 -11   43.40    4.66
   9  -7 -11   45.95    5.32
  -9   7  11   40.92    4.81
   9  -7 -12   61.16    5.10
   9  -7 -12   54.03    5.75
  -9   7  12   56.87    5.46
   9  -7 -13   14.05    3.42
   9  -7 -13   14.64    3.93
  -9   7  13   14.05    3.86
   9  -7 -14    8.23    3.42
  -9   7  14    3.79    2.62
  -9   7  15   51.77    8.66
  10  -7  13   50.39    7.57
 -10   7 -13   53.45    6.63
  10  -7  12   44.56    5.17
 -10   7 -12   54.03    5.75
  10  -7  11   71.58    5.75
 -10   7 -11   68.15    5.75
  10  -7  10   23.37    3.86
 -10   7 -10   30.29    4.30
  10  -7   9    3.50    2.33
 -10   7  -9    1.75    2.33
  10  -7   8   16.60    3.20
 -10   7  -8   20.75    3.64
 -10   7  -8   18.06    3.35
  10  -7   7    9.10    2.55
 -10   7  -7   11.50    2.48
 -10   7  -7    9.68    2.62
 -10   7  -7    9.03    1.38
 -10   7  -7   10.27    1.53
  10  -7   6   48.28    4.37
 -10   7  -6   46.38    3.93
 -10   7  -6   43.11    4.08
 -10   7  -6   51.19    2.77
 -10   7  -6   47.62    2.77
  10  -7   5   72.60    4.88
  10  -7   5   73.32    4.08
 -10   7  -5   80.10    4.73
 -10   7  -5   74.34    4.59
  10  -7   4  142.64    6.04
  10  -7   4  127.50    4.95
 -10   7  -4  148.47    6.04
 -10   7  -4  132.16    5.39
  10  -7   3   16.60    2.99
  10  -7   3   17.18    2.55
 -10   7  -3   17.77    2.99
 -10   7  -3   14.93    2.55
  10  -7   2   55.70    4.15
  10  -7   2   47.77    3.64
 -10   7  -2   56.07    4.37
 -10   7  -2   50.75    3.35
  10  -7   1  331.89    8.16
  10  -7   1  326.87    7.65
  10  -7   1  328.98    6.33
  10  -7   1  302.91    5.90
 -10   7  -1  333.20    8.59
 -10   7  -1  304.15    6.55
  10  -7   0  167.11    5.97
  10  -7   0  160.56    5.68
  10  -7   0  154.51    4.15
  10  -7   0  157.79    4.22
 -10   7   0  158.37    6.33
  10  -7  -1   40.70    3.50
  10  -7  -1   39.83    3.71
  10  -7  -1   40.19    2.18
  10  -7  -1   41.21    2.33
 -10   7   1   41.94    4.08
  10  -7  -2   77.55    4.22
  10  -7  -2   68.52    4.37
 -10   7   2   73.54    4.81
  10  -7  -3   49.15    3.64
  10  -7  -3   46.53    4.08
 -10   7   3   48.28    4.30
  10  -7  -4  170.75    5.75
  10  -7  -4  161.79    6.33
 -10   7   4  158.59    6.48
  10  -7  -5  212.11    6.26
  10  -7  -5  200.75    7.21
 -10   7   5  202.13    7.21
  10  -7  -6    3.86    1.97
  10  -7  -6    1.46    2.33
 -10   7   6    1.53    2.11
  10  -7  -7   23.88    3.28
  10  -7  -7   23.30    3.79
 -10   7   7   23.74    3.42
  10  -7  -8    1.17    1.89
  10  -7  -8    1.38    2.33
 -10   7   8   -2.04    1.89
  10  -7  -9   19.88    3.28
  10  -7  -9   23.45    4.15
 -10   7   9   18.71    3.20
  10  -7 -10   38.81    5.02
 -10   7  10   33.20    4.00
  10  -7 -11   14.05    3.71
  10  -7 -12   40.63    5.39
 -10   7  12   35.82    5.02
 -11   7 -12  131.36    8.37
  11  -7  11    4.37    2.84
 -11   7 -11    3.86    2.99
  11  -7  10   11.65    3.28
 -11   7 -10   13.76    3.57
  11  -7   9    2.11    2.40
 -11   7  -9    6.48    2.77
  11  -7   8   35.02    4.37
 -11   7  -8   35.32    4.44
 -11   7  -8   35.17    2.04
 -11   7  -8   32.62    2.04
  11  -7   7   53.96    4.88
 -11   7  -7   64.37    4.66
 -11   7  -7   60.07    4.95
 -11   7  -7   60.15    2.91
 -11   7  -7   62.33    3.06
  11  -7   6   16.31    3.28
 -11   7  -6   19.66    3.28
 -11   7  -6   13.83    2.99
  11  -7   5   12.52    2.91
  11  -7   5   11.58    2.48
 -11   7  -5   12.60    2.84
 -11   7  -5   12.45    2.77
  11  -7   4   55.92    4.59
  11  -7   4   54.10    4.08
 -11   7  -4   61.67    4.73
 -11   7  -4   57.01    4.15
  11  -7   3   46.16    4.22
  11  -7   3   37.50    3.71
 -11   7  -3   46.97    4.37
 -11   7  -3   44.78    3.79
  11  -7   2   98.45    5.24
  11  -7   2   92.40    4.88
 -11   7  -2  105.73    5.75
 -11   7  -2   91.53    4.51
  11  -7   1  307.57    8.16
  11  -7   1  304.29    8.01
  11  -7   1  289.66    5.90
  11  -7   1  277.06    5.75
 -11   7  -1  317.91    8.96
  11  -7   0    9.54    2.40
  11  -7   0    9.61    2.33
  11  -7   0   10.85    1.53
  11  -7   0    8.52    1.53
 -11   7   0   10.56    2.77
  11  -7  -1   88.98    4.73
  11  -7  -1   80.90    4.88
  11  -7  -1   79.22    2.55
  11  -7  -1   84.90    2.69
 -11   7   1   81.70    5.46
  11  -7  -2  146.21    5.61
  11  -7  -2  131.79    5.97
 -11   7   2  140.97    6.55
  11  -7  -3   91.02    4.66
  11  -7  -3   83.01    5.24
 -11   7   3   88.76    5.61
  11  -7  -4   60.22    4.00
  11  -7  -4   53.23    4.88
 -11   7   4   57.16    4.88
  11  -7  -5   37.14    4.51
 -11   7   5   31.38    4.00
  11  -7  -6    7.50    2.84
 -11   7   6    2.91    2.40
  11  -7  -7   22.28    4.00
 -11   7   7   19.00    3.50
  11  -7  -8   50.68    5.32
 -11   7   8   53.01    5.02
  11  -7  -9   24.47    4.37
 -11   7   9   14.78    3.35
  11  -7 -10   10.12    3.50
 -11   7  10    9.61    2.99
  11  -7 -11   34.73    5.24
 -12   7 -11   47.84    7.94
  12  -7  10   26.50    4.44
 -12   7 -10   28.98    4.73
  12  -7   9   24.39    4.22
 -12   7  -9   20.61    3.93
  12  -7   8   43.03    5.02
 -12   7  -8   46.67    5.02
 -12   7  -8   36.63    2.33
 -12   7  -8   44.20    2.55
  12  -7   7    7.35    2.91
 -12   7  -7   11.72    3.06
 -12   7  -7    7.06    2.84
 -12   7  -7    9.17    1.82
 -12   7  -7    7.14    1.75
  12  -7   6   41.72    4.66
 -12   7  -6   44.27    4.66
 -12   7  -6   44.49    4.59
  12  -7   5   10.49    2.99
  12  -7   5    9.76    2.62
 -12   7  -5   10.12    2.91
 -12   7  -5   11.65    2.84
  12  -7   4   53.45    4.73
  12  -7   4   47.84    4.22
 -12   7  -4   53.01    4.88
 -12   7  -4   48.28    4.22
  12  -7   3   32.91    4.08
  12  -7   3   32.91    3.86
 -12   7  -3   31.89    4.15
 -12   7  -3   32.99    3.64
  12  -7   2   11.43    2.77
  12  -7   2   12.38    2.84
 -12   7  -2   10.56    2.99
  12  -7   1    7.79    2.40
  12  -7   1    5.24    2.40
  12  -7   1    7.06    1.67
  12  -7   1    5.39    1.60
 -12   7  -1    6.48    2.77
  12  -7   0  125.75    5.75
  12  -7   0  117.45    5.97
  12  -7   0  113.45    3.35
  12  -7   0  111.41    3.42
 -12   7   0  122.98    6.55
  12  -7  -1  131.87    5.68
  12  -7  -1  122.91    6.12
 -12   7   1  134.20    6.84
  12  -7  -2    6.84    2.26
  12  -7  -2    9.76    2.84
 -12   7   2    8.45    2.99
  12  -7  -3   51.41    4.88
 -12   7   3   54.68    5.24
  12  -7  -4   41.07    5.02
 -12   7   4   43.40    4.95
  12  -7  -5    3.28    2.77
 -12   7   5    1.17    2.55
  12  -7  -6  111.99    6.70
 -12   7   6  113.66    6.55
  12  -7  -7   68.45    5.97
 -12   7   7   72.60    5.75
  12  -7  -8   23.23    4.30
 -12   7   8   23.96    4.00
  12  -7  -9    8.96    3.50
 -12   7   9    7.14    3.20
  12  -7 -10    0.22    2.99
 -12   7  10   -2.48    2.48
  13  -7   9    0.87    3.13
 -13   7  -9    5.17    3.13
  13  -7   8    1.46    2.62
 -13   7  -8    4.30    2.99
 -13   7  -8    1.02    1.17
 -13   7  -8    2.48    1.38
  13  -7   7    3.20    2.77
 -13   7  -7    4.81    2.91
 -13   7  -7   10.92    3.20
  13  -7   6   13.18    3.35
 -13   7  -6   15.00    3.50
 -13   7  -6   11.72    3.20
  13  -7   5   -2.77    2.04
  13  -7   5    0.44    2.11
 -13   7  -5   -0.73    2.33
 -13   7  -5    0.95    2.18
  13  -7   4   58.98    5.10
  13  -7   4   60.58    4.95
 -13   7  -4   70.12    5.61
 -13   7  -4   62.11    4.88
  13  -7   3   11.36    2.99
  13  -7   3    6.33    2.62
 -13   7  -3    7.72    3.06
  13  -7   2   34.66    4.30
  13  -7   2   40.49    4.44
  13  -7   2   36.70    2.99
 -13   7  -2   40.99    5.10
  13  -7   1   81.92    5.24
  13  -7   1   87.45    5.83
  13  -7   1   87.01    3.35
  13  -7   1   75.58    3.20
 -13   7  -1   88.54    6.19
  13  -7   0   46.53    4.81
  13  -7   0   49.51    4.95
 -13   7   0   55.27    5.53
  13  -7  -1    3.28    2.77
 -13   7   1    2.91    2.84
  13  -7  -2   36.77    4.59
 -13   7   2   40.99    5.02
  13  -7  -3    3.35    2.84
 -13   7   3    5.83    2.99
  13  -7  -4   45.00    5.53
 -13   7   4   54.10    5.53
  13  -7  -5   81.04    6.41
 -13   7   5   75.44    6.12
  13  -7  -6   37.50    4.95
 -13   7   6   37.50    4.88
  13  -7  -7   47.55    5.90
 -13   7   7   49.44    5.61
  13  -7  -8   -0.22    2.99
 -13   7   8   -2.77    2.62
 -13   7   9   24.83    4.44
 -13   7  10   52.94    6.12
 -14   7  -8   92.04    8.52
 -14   7  -8   75.87    4.59
 -14   7  -8   85.99    4.22
  14  -7   7   55.63    5.83
 -14   7  -7   58.11    5.90
  14  -7   6   12.16    3.57
 -14   7  -6   12.09    3.57
 -14   7  -6   13.11    3.50
  14  -7   5   65.97    5.61
  14  -7   5   69.10    5.61
 -14   7  -5   73.91    6.12
  14  -7   4    7.14    2.91
  14  -7   4    6.70    3.06
 -14   7  -4    6.04    3.13
  14  -7   3   12.45    3.28
  14  -7   3    9.98    3.20
 -14   7  -3   11.29    3.50
  14  -7   2   83.01    6.04
  14  -7   2   79.22    3.42
  14  -7   2   73.03    3.50
 -14   7  -2   77.40    6.41
  14  -7   1    1.67    2.69
 -14   7  -1   -1.38    2.62
  14  -7   0   18.20    3.86
 -14   7   0   18.49    4.08
  14  -7  -1   85.78    6.48
 -14   7   1   98.01    6.92
  14  -7  -2    0.51    2.77
 -14   7   2    2.62    2.91
  14  -7  -3    3.35    2.99
 -14   7   3    1.67    2.84
  14  -7  -4   64.81    6.33
 -14   7   4   67.14    6.26
  14  -7  -5   72.38    6.84
 -14   7   5   71.14    6.41
  14  -7  -6    7.72    3.57
 -14   7   6    4.15    3.20
 -14   7   7  118.62    8.52
  15  -7   5    7.21    3.64
  15  -7   4    8.96    3.28
  15  -7   3   23.23    4.37
  15  -7   3   23.23    2.55
  15  -7   3   20.10    2.40
  15  -7   2   78.28    6.48
  15  -7   1    7.35    3.64
  15  -7   0   72.45    6.41
  15  -7  -1   22.21    4.44
  15  -7  -2    0.36    3.13
  -7  -8   4    6.92    5.10
  -7  -8   3   19.66    4.51
   7   8  -3   20.10    4.22
  -7  -8   2   73.62    7.06
   7   8  -2   73.25    6.12
  -7  -8   1   14.34    4.44
   7   8  -1   13.33    3.50
  -7  -8   0   55.56    7.72
   7   8   0   64.88    5.75
   7   8   2    2.18    2.48
   7   8   3    2.62    2.69
   7   8   4    4.44    3.42
   7   8   5    5.17    1.46
   7   8   5    3.28    1.31
  -6  -8   7   16.82    3.86
  -6  -8   6   35.61    4.88
   6   8  -6   42.38    5.97
  -6  -8   5    2.18    2.62
   6   8  -5    1.60    2.69
  -6  -8   4   18.06    3.79
   6   8  -4   17.84    3.79
  -6  -8   3   29.42    4.51
   6   8  -3   25.41    4.22
  -6  -8   2    4.73    2.77
   6   8  -2    6.33    2.84
  -6  -8   1    5.46    2.77
   6   8  -1    6.33    2.69
  -6  -8   0   64.59    5.75
   6   8   0   64.66    5.17
  -6  -8  -1   -1.17    2.26
   6   8   1    2.99    2.40
   6   8   1    2.04    2.11
  -6  -8  -2   34.30    4.73
   6   8   2   33.64    4.44
  -6  -8  -3   81.12    6.41
   6   8   3   71.87    5.61
   6   8   3   68.15    2.69
  -6  -8  -4    7.43    3.20
   6   8   4   15.29    3.42
   6   8   4    9.76    1.75
   6   8   4    7.57    1.53
  -6  -8  -5   46.53    5.39
   6   8   5   38.08    4.88
  -6  -8  -6    8.30    3.28
   6   8   6    3.86    2.69
  -5  -8   8   12.60    3.35
   5   8  -8   13.11    3.71
  -5  -8   7   18.13    3.79
   5   8  -7   12.16    3.57
  -5  -8   6   54.10    5.46
   5   8  -6   48.42    5.39
  -5  -8   5   11.36    3.28
   5   8  -5    8.74    3.06
  -5  -8   4   27.67    4.08
   5   8  -4   23.16    3.93
  -5  -8   3   25.27    4.15
   5   8  -3   18.57    3.57
  -5  -8   2   87.81    6.12
   5   8  -2   79.00    5.53
  -5  -8   1   29.78    4.22
   5   8  -1   33.20    4.30
  -5  -8   0   14.13    3.35
   5   8   0   12.89    2.84
   5   8   0   11.58    2.91
  -5  -8  -1   10.49    3.13
   5   8   1   11.36    2.77
   5   8   1   11.07    2.77
  -5  -8  -2   16.67    3.64
   5   8   2   13.76    2.99
   5   8   2   17.62    3.06
   5   8   2   12.74    1.53
   5   8   2   13.83    1.38
  -5  -8  -3  171.04    7.86
   5   8   3  159.97    6.99
   5   8   3  140.24    4.15
   5   8   3  136.31    4.00
  -5  -8  -4   10.12    3.06
   5   8   4   12.60    3.06
  -5  -8  -5    4.08    2.69
   5   8   5    2.84    2.33
  -5  -8  -6    5.90    2.84
   5   8   6    6.99    2.84
  -5  -8  -7   31.16    4.59
   5   8   7   27.31    4.22
  -5  -8  -8    8.88    3.28
   5   8   8    9.32    3.20
  -5  -8  -9   20.17    4.00
   4   8 -10    3.93    3.20
  -4  -8   9   58.18    5.46
   4   8  -9   56.80    5.97
  -4  -8   8   35.97    4.59
   4   8  -8   38.81    4.95
  -4  -8   7   10.27    2.99
   4   8  -7    8.23    2.91
  -4  -8   6   32.77    4.30
   4   8  -6   27.52    4.08
  -4  -8   5   66.77    5.46
   4   8  -5   62.26    5.32
  -4  -8   4   25.92    3.86
   4   8  -4   22.57    3.86
  -4  -8   3   53.66    4.95
   4   8  -3   49.66    4.66
  -4  -8   2   20.83    3.64
   4   8  -2   22.21    3.42
  -4  -8   1    3.42    2.26
   4   8  -1    6.41    2.33
  -4  -8   0   22.06    3.79
   4   8   0   18.49    2.91
   4   8   0   15.07    2.91
  -4  -8  -1   30.80    4.08
   4   8   1   28.98    3.57
   4   8   1   30.15    3.64
  -4  -8  -2   94.37    5.90
   4   8   2   90.87    5.24
   4   8   2   91.38    5.10
   4   8   2   82.72    3.06
   4   8   2   82.21    2.99
  -4  -8  -3   36.99    4.51
   4   8   3   32.62    4.00
   4   8   3   35.39    3.64
   4   8   3   35.32    2.62
   4   8   3   28.69    2.33
  -4  -8  -4   13.62    3.20
   4   8   4   14.34    2.99
  -4  -8  -5   21.63    3.79
   4   8   5   27.01    3.93
  -4  -8  -6   37.21    4.66
   4   8   6   29.27    4.22
  -4  -8  -7   36.12    4.66
   4   8   7   33.28    4.51
  -4  -8  -8    9.68    2.84
   4   8   8    5.24    2.69
  -4  -8  -9  136.31    7.14
  -4  -8  -9  136.67    4.37
  -4  -8  -9  134.49    4.30
   4   8   9  146.50    7.79
  -4  -8 -10   68.15    5.75
   4   8  10   62.48    6.04
  -4  -8 -11   10.19    3.13
   3   8 -12  130.34    8.96
   3   8 -11   30.95    4.88
  -3  -8  10   70.27    5.75
   3   8 -10   58.32    5.83
  -3  -8   9    5.39    2.84
   3   8  -9    4.22    2.91
  -3  -8   8    8.59    2.99
   3   8  -8    9.83    3.06
  -3  -8   7   58.76    5.17
   3   8  -7   52.21    5.17
  -3  -8   6   14.13    3.06
   3   8  -6   11.65    2.91
  -3  -8   5  128.66    6.33
   3   8  -5  116.87    6.12
  -3  -8   4   83.59    5.39
   3   8  -4   80.61    5.39
  -3  -8   3   19.66    3.28
   3   8  -3   25.34    3.64
  -3  -8   2    1.38    1.97
   3   8  -2   -1.24    1.67
  -3  -8   1   12.60    2.77
   3   8  -1   10.56    2.18
   3   8  -1   10.19    2.48
  -3  -8   0  189.83    7.21
   3   8   0  188.30    6.19
   3   8   0  176.36    6.55
  -3  -8  -1   48.71    4.51
   3   8   1   57.67    4.15
   3   8   1   47.55    3.93
   3   8   1   45.22    2.18
   3   8   1   44.49    2.11
  -3  -8  -2   39.17    4.22
   3   8   2   34.44    3.71
   3   8   2   37.14    3.71
   3   8   2   33.86    2.33
   3   8   2   32.99    2.26
  -3  -8  -3   13.98    2.99
   3   8   3   15.29    2.91
   3   8   3   14.78    2.62
  -3  -8  -4   95.61    5.68
   3   8   4   91.09    5.24
   3   8   4   83.74    4.51
  -3  -8  -5   16.75    3.28
   3   8   5   14.42    2.91
  -3  -8  -6    4.15    2.26
   3   8   6    7.72    2.62
  -3  -8  -7    4.88    2.40
   3   8   7    4.95    2.48
  -3  -8  -8   15.22    3.20
   3   8   8   15.44    3.35
  -3  -8  -9   67.50    5.24
  -3  -8  -9   70.05    3.06
  -3  -8  -9   63.93    2.91
   3   8   9   76.09    5.83
  -3  -8 -10   38.01    4.51
   3   8  10   43.98    5.17
  -3  -8 -11   27.09    4.08
   3   8  11   30.15    4.66
   2   8 -13   82.64    6.70
   2   8 -12   52.50    5.68
  -2  -8  11   69.98    5.68
   2   8 -11   51.99    5.46
  -2  -8  10  318.78    9.54
   2   8 -10  295.12    9.83
  -2  -8   9    0.80    2.26
   2   8  -9    0.36    2.40
  -2  -8   8   27.31    3.86
   2   8  -8   23.16    3.64
  -2  -8   7   37.14    4.22
   2   8  -7   38.08    4.44
  -2  -8   6   26.21    3.64
   2   8  -6   25.85    3.71
  -2  -8   5    4.30    2.26
   2   8  -5    2.33    2.11
  -2  -8   4   78.49    5.10
   2   8  -4   55.12    4.44
  -2  -8   3   67.35    4.73
   2   8  -3   54.83    4.30
  -2  -8   2    7.57    2.33
   2   8  -2    5.10    2.04
  -2  -8   1  227.40    7.43
   2   8  -1  228.49    6.19
   2   8  -1  216.19    6.99
  -2  -8   0  157.79    6.33
   2   8   0  165.80    5.61
   2   8   0  152.69    5.90
   2   8   0  140.97    2.91
   2   8   0  146.72    2.99
  -2  -8  -1  112.21    5.61
   2   8   1  106.46    4.81
   2   8   1  101.94    4.95
   2   8   1  100.85    3.20
   2   8   1   90.73    2.99
  -2  -8  -2  432.16    9.90
  -2  -8  -2  420.87    9.90
   2   8   2  413.52    8.96
   2   8   2  398.59    8.74
   2   8   2  395.75    6.55
   2   8   2  362.40    6.26
  -2  -8  -3  182.55    6.84
  -2  -8  -3  175.34    5.39
   2   8   3  184.29    6.55
   2   8   3  171.26    5.90
  -2  -8  -4  190.70    6.99
  -2  -8  -4  183.78    5.68
   2   8   4  194.20    6.84
   2   8   4  169.51    5.75
  -2  -8  -5   23.96    3.42
  -2  -8  -5   23.74    2.99
   2   8   5   24.54    3.42
   2   8   5   23.96    2.91
  -2  -8  -6   11.43    2.77
  -2  -8  -6   11.72    2.40
   2   8   6    9.76    2.69
  -2  -8  -7  149.93    6.33
  -2  -8  -7  150.87    5.97
   2   8   7  158.88    6.84
  -2  -8  -8   69.68    4.88
  -2  -8  -8   69.03    4.59
  -2  -8  -8   76.31    3.28
  -2  -8  -8   60.22    2.91
   2   8   8   71.43    5.24
  -2  -8  -9    6.33    2.33
  -2  -8  -9    9.39    2.62
  -2  -8  -9    6.63    1.31
  -2  -8  -9    6.19    1.17
   2   8   9    3.50    2.33
  -2  -8 -10   56.43    4.73
  -2  -8 -10   62.84    4.95
   2   8  10   63.57    5.53
  -2  -8 -11  138.06    6.77
   2   8  11  152.47    7.79
  -2  -8 -12   85.56    5.90
   2   8  12   87.16    6.48
  -2  -8 -13   15.22    3.50
   1   8 -14   11.87    3.57
  -1  -8  13   49.15    5.75
   1   8 -13   43.25    5.32
  -1  -8  12   16.46    3.86
   1   8 -12   10.63    3.13
  -1  -8  11   16.75    3.79
  -1  -8  11   10.27    2.91
   1   8 -11   13.11    3.20
  -1  -8  10    8.30    3.06
  -1  -8  10   15.15    3.13
   1   8 -10   13.33    3.13
  -1  -8   9   41.50    4.30
   1   8  -9   38.52    4.51
  -1  -8   8   50.24    4.44
   1   8  -8   44.27    4.37
  -1  -8   7    8.45    2.48
   1   8  -7    1.82    2.04
  -1  -8   6   91.67    5.17
   1   8  -6   82.06    5.10
  -1  -8   5   74.49    4.73
   1   8  -5   64.73    4.59
  -1  -8   4   16.46    2.99
   1   8  -4   12.60    2.55
  -1  -8   3   66.84    4.51
   1   8  -3   61.53    4.22
  -1  -8   2  719.05   12.09
   1   8  -2  683.44    9.25
   1   8  -2  635.31   11.29
  -1  -8   1  170.97    6.26
   1   8  -1  162.74    5.02
   1   8  -1  149.49    5.75
  -1  -8   0    5.24    2.04
   1   8   0    4.88    1.67
   1   8   0    6.70    2.04
   1   8   0    6.41    1.09
   1   8   0    4.59    0.95
  -1  -8  -1  286.53    7.79
   1   8   1  280.48    6.92
   1   8   1  266.14    7.14
   1   8   1  249.10    4.88
   1   8   1  224.63    4.59
  -1  -8  -2  312.67    8.08
   1   8   2  328.54    7.72
   1   8   2  313.03    7.57
   1   8   2  306.40    5.90
   1   8   2  288.35    5.61
  -1  -8  -3  193.91    6.55
  -1  -8  -3  185.97    5.61
   1   8   3  201.26    6.48
   1   8   3  178.83    5.75
  -1  -8  -4  272.98    7.72
  -1  -8  -4  270.22    6.84
   1   8   4  275.60    7.72
   1   8   4  254.34    6.70
  -1  -8  -5  147.74    5.90
  -1  -8  -5  138.71    5.24
   1   8   5  146.79    6.12
   1   8   5  135.14    4.95
  -1  -8  -6   95.75    5.10
  -1  -8  -6   98.01    4.81
   1   8   6  103.03    5.46
   1   8   6   90.65    4.15
  -1  -8  -7   21.04    3.06
  -1  -8  -7   23.88    3.28
  -1  -8  -7   21.92    2.18
  -1  -8  -7   20.83    2.04
   1   8   7   22.06    3.35
  -1  -8  -8   73.83    4.66
  -1  -8  -8   69.76    4.59
  -1  -8  -8   80.39    3.06
  -1  -8  -8   73.83    2.84
   1   8   8   85.19    5.53
  -1  -8  -9   45.95    4.08
  -1  -8  -9   43.03    4.15
   1   8   9   47.11    4.81
  -1  -8 -10   24.83    3.35
  -1  -8 -10   28.40    3.86
   1   8  10   31.97    4.37
  -1  -8 -11   73.11    5.39
   1   8  11   72.74    5.83
  -1  -8 -12   26.14    4.08
   1   8  12   30.29    4.59
  -1  -8 -13   45.22    5.10
   1   8  13   52.86    5.68
  -1  -8 -14   11.29    4.00
   0  -8  14   28.91    4.73
   0   8 -14   22.79    4.51
   0  -8  13    3.35    2.91
   0   8 -13    4.00    3.13
   0   8 -13    4.73    2.77
   0  -8  12   17.69    3.79
   0  -8  12   18.35    3.35
   0   8 -12   16.53    3.79
   0   8 -12   15.95    3.28
   0  -8  11   29.27    4.30
   0  -8  11   28.69    3.79
   0   8 -11   30.36    4.30
   0   8 -11   26.43    3.86
   0  -8  10   13.69    3.28
   0  -8  10    9.83    2.69
   0   8 -10   11.72    3.13
   0   8 -10   10.12    2.84
   0  -8   9   74.85    5.17
   0  -8   9   76.24    5.02
   0   8  -9   72.60    5.32
   0   8  -9   71.29    5.02
   0  -8   8   12.45    2.91
   0  -8   8   14.78    2.84
   0   8  -8    8.81    2.48
   0  -8   7    1.02    2.04
   0  -8   7    1.09    1.89
   0   8  -7    1.24    1.89
   0  -8   6   71.29    4.66
   0  -8   6   68.15    4.51
   0   8  -6   67.50    4.44
   0  -8   5  107.91    4.08
   0  -8   5  115.27    5.39
   0   8  -5   95.75    5.02
   0  -8   4  295.99    6.33
   0  -8   4  313.61    8.08
   0   8  -4  282.74    7.72
   0  -8   3  648.27    9.32
   0  -8   3  639.10   11.07
   0   8  -3  590.89   10.63
   0  -8   2  218.01    5.68
   0  -8   2  217.42    6.70
   0   8  -2  206.65    5.02
   0   8  -2  198.71    6.41
   0  -8   1  409.58    8.81
   0   8  -1  404.92    7.14
   0   8  -1  355.41    8.08
   0   8  -1  344.56    4.22
   0   8  -1  390.51    4.44
   0  -8   0   78.13    4.37
   0   8   0   73.47    3.64
   0   8   0   68.81    4.00
   0   8   0   58.47    2.33
   0  -8  -1  202.93    6.41
   0   8   1  191.79    5.61
   0   8   1  175.92    5.75
   0   8   1  183.06    4.30
   0   8   1  169.59    4.15
   0  -8  -2   25.85    3.13
   0   8   2   27.16    2.91
   0   8   2   24.25    2.77
   0   8   2   28.91    2.18
   0   8   2   26.21    2.18
   0  -8  -3  116.58    4.95
   0   8   3  121.67    4.95
   0  -8  -4    6.70    1.97
   0  -8  -4    8.16    1.89
   0   8   4    5.68    1.97
   0  -8  -5   42.74    3.57
   0  -8  -5   41.94    3.50
   0   8   5   36.99    3.64
   0  -8  -6  218.66    6.63
   0  -8  -6  203.74    6.48
   0  -8  -6  219.32    5.02
   0  -8  -6  191.65    4.66
   0   8   6  207.67    6.99
   0  -8  -7   47.26    3.71
   0  -8  -7   50.46    4.00
   0  -8  -7   49.81    2.55
   0  -8  -7   46.16    2.40
   0   8   7   49.22    4.22
   0  -8  -8   57.23    3.93
   0  -8  -8   49.95    4.08
   0  -8  -8   51.63    2.26
   0  -8  -8   48.35    2.11
   0   8   8   52.21    4.51
   0  -8  -9   45.07    3.79
   0  -8  -9   44.34    4.08
   0   8   9   52.35    4.66
   0  -8 -10    8.30    2.62
   0   8  10    8.52    2.62
   0  -8 -11   97.72    5.90
   0   8  11   97.64    6.12
   0  -8 -12   75.65    5.68
   0   8  12   81.04    5.97
   0  -8 -13   29.93    4.59
   0   8  13   35.46    4.81
   0  -8 -14    5.83    2.91
   0   8  14    6.04    2.99
   1  -8  14   21.33    4.22
  -1   8 -14   14.13    3.64
   1  -8  13   12.01    3.50
  -1   8 -13    7.57    3.20
  -1   8 -13    4.73    2.55
   1  -8  12    1.75    2.69
  -1   8 -12    1.24    2.48
  -1   8 -12    2.11    2.26
   1  -8  11    3.93    2.62
  -1   8 -11    1.82    2.40
  -1   8 -11    2.26    2.33
   1  -8  10   49.88    4.81
  -1   8 -10   44.27    4.73
  -1   8 -10   51.33    4.37
   1  -8   9    9.54    2.69
  -1   8  -9    7.21    2.48
  -1   8  -9    5.83    2.33
   1  -8   8   15.87    2.99
  -1   8  -8   13.83    2.84
  -1   8  -8   15.15    2.84
   1  -8   7   13.47    2.11
   1  -8   7   13.33    2.77
   1  -8   7   17.33    2.84
  -1   8  -7   12.23    2.62
  -1   8  -7    8.59    2.33
   1  -8   6   84.47    3.79
   1  -8   6   81.77    4.73
   1  -8   6   83.45    4.66
  -1   8  -6   80.75    4.66
  -1   8  -6   78.57    4.59
   1  -8   5   98.23    4.08
   1  -8   5  105.51    5.02
   1  -8   5   99.10    4.88
  -1   8  -5   94.80    4.81
   1  -8   4  188.01    5.32
   1  -8   4  183.42    6.04
   1  -8   4  188.44    6.26
  -1   8  -4  166.89    5.90
   1  -8   3  408.64    7.57
   1  -8   3  416.21    8.74
  -1   8  -3  415.48    6.12
  -1   8  -3  385.92    8.37
   1  -8   2   53.23    3.28
   1  -8   2   50.75    3.57
  -1   8  -2   48.64    2.69
  -1   8  -2   45.58    3.42
   1  -8   1  116.14    4.37
   1  -8   1  130.85    5.10
  -1   8  -1  125.68    4.08
  -1   8  -1  115.70    2.84
  -1   8  -1  105.58    2.69
   1  -8   0   94.88    4.08
   1  -8   0  103.47    4.59
  -1   8   0   94.30    3.86
  -1   8   0   87.96    2.84
  -1   8   0   80.53    2.69
   1  -8  -1  382.42    8.08
  -1   8   1  396.99    7.50
  -1   8   1  369.17    5.90
  -1   8   1  333.78    5.61
   1  -8  -2  396.19    8.16
  -1   8   2  389.70    7.72
  -1   8   2  366.55    6.26
  -1   8   2  311.94    5.83
   1  -8  -3    2.62    1.53
  -1   8   3    2.69    1.53
   1  -8  -4  151.38    5.24
   1  -8  -4  143.01    5.02
  -1   8   4  161.87    5.61
   1  -8  -5  133.32    4.95
   1  -8  -5  124.59    5.02
   1  -8  -5  129.83    3.86
   1  -8  -5  119.85    3.64
  -1   8   5  137.18    5.46
   1  -8  -6  485.82    8.96
   1  -8  -6  494.99    9.68
   1  -8  -6  561.26    7.28
   1  -8  -6  466.09    6.55
  -1   8   6  507.88   10.19
   1  -8  -7  146.28    5.24
   1  -8  -7  137.98    5.68
   1  -8  -7  142.13    3.42
   1  -8  -7  132.60    3.28
  -1   8   7  152.62    6.19
   1  -8  -8  160.63    5.46
   1  -8  -8  149.63    6.12
  -1   8   8  161.65    6.55
   1  -8  -9   72.60    6.19
   1  -8  -9   71.87    4.81
  -1   8   9   72.09    4.95
   1  -8 -10   19.15    3.42
  -1   8  10   21.26    3.57
   1  -8 -11  116.29    6.33
  -1   8  11  124.44    6.55
   1  -8 -12   11.21    3.06
  -1   8  12   10.41    3.06
   1  -8 -13    2.48    2.48
  -1   8  13    1.38    2.26
   1  -8 -14    9.54    3.20
  -1   8  14    7.14    3.06
   2  -8  14    0.95    2.77
  -2   8 -14   -0.80    2.77
   2  -8  13   18.20    3.86
  -2   8 -13   15.22    3.71
   2  -8  12   50.75    5.10
  -2   8 -12   50.17    5.17
  -2   8 -12   44.13    4.44
   2  -8  11   28.76    4.22
  -2   8 -11   27.01    4.00
  -2   8 -11   26.29    3.57
   2  -8  10   58.03    4.95
  -2   8 -10   63.86    5.10
  -2   8 -10   57.38    4.37
   2  -8   9  144.97    5.24
   2  -8   9  155.90    6.63
  -2   8  -9  156.99    6.70
  -2   8  -9  142.28    5.90
   2  -8   8    6.70    1.89
   2  -8   8    7.79    2.48
  -2   8  -8    7.79    2.40
  -2   8  -8    4.66    2.11
   2  -8   7  135.95    4.88
   2  -8   7  137.33    5.83
  -2   8  -7  131.58    5.68
  -2   8  -7  127.21    5.53
   2  -8   6  279.68    6.55
   2  -8   6  296.21    7.79
  -2   8  -6  292.79    7.72
  -2   8  -6  265.48    7.35
   2  -8   5  365.02    7.35
   2  -8   5  366.26    8.16
  -2   8  -5  362.62    8.16
  -2   8  -5  346.38    8.08
   2  -8   4  316.67    6.77
   2  -8   4  320.24    7.43
  -2   8  -4  324.54    7.43
  -2   8  -4  306.77    7.43
   2  -8   3  357.38    7.21
   2  -8   3  368.08    7.65
   2  -8   3  359.71    7.86
  -2   8  -3  371.72    5.68
   2  -8   2   96.99    4.00
   2  -8   2  104.13    4.44
  -2   8  -2  104.20    3.42
  -2   8  -2   91.97    2.26
  -2   8  -2   77.26    2.04
   2  -8   1  219.46    5.75
   2  -8   1  233.95    6.33
  -2   8  -1  231.48    5.17
  -2   8  -1  221.43    4.00
  -2   8  -1  199.15    3.79
   2  -8   0  739.87   10.41
   2  -8   0  781.52   11.00
  -2   8   0  768.27    9.54
  -2   8   0  778.68    8.08
  -2   8   0  670.77    7.50
   2  -8  -1   60.07    3.50
   2  -8  -1   64.88    3.64
  -2   8   1   63.35    3.35
  -2   8   1   58.25    2.62
  -2   8   1   53.96    2.48
   2  -8  -2  134.85    4.88
   2  -8  -2  146.43    4.95
  -2   8   2  150.65    4.95
  -2   8   2  145.05    4.22
   2  -8  -3    5.83    1.75
   2  -8  -3    5.83    1.46
   2  -8  -3    6.55    1.31
  -2   8   3    7.50    1.89
   2  -8  -4   46.02    3.13
   2  -8  -4   44.05    2.40
   2  -8  -4   40.70    2.26
  -2   8   4   48.42    3.50
   2  -8  -5   37.72    2.91
   2  -8  -5   34.51    2.18
   2  -8  -5   32.62    1.97
  -2   8   5   36.70    3.28
   2  -8  -6   58.83    3.42
   2  -8  -6   56.72    3.86
   2  -8  -6   55.48    2.40
   2  -8  -6   54.54    2.26
  -2   8   6   61.16    4.08
   2  -8  -7  158.15    5.10
   2  -8  -7  159.76    6.04
   2  -8  -7  163.32    3.13
   2  -8  -7  147.45    2.91
  -2   8   7  165.94    6.19
   2  -8  -8    6.84    1.75
   2  -8  -8    9.54    2.48
  -2   8   8    5.97    2.18
   2  -8  -9  134.93    6.12
  -2   8   9  139.51    6.19
   2  -8 -10   12.96    2.99
  -2   8  10   17.04    3.13
   2  -8 -11   31.09    4.15
  -2   8  11   32.18    4.08
   2  -8 -12   59.34    5.24
  -2   8  12   58.40    5.17
   2  -8 -13    5.68    2.84
  -2   8  13    8.96    2.91
   2  -8 -14   42.09    5.32
  -2   8  14   42.60    4.95
  -2   8  15   20.75    3.93
  -3   8 -15   12.16    4.22
  -3   8 -14   -0.66    2.77
  -3   8 -13   22.06    4.00
  -3   8 -12   62.04    5.46
   3  -8  11   11.43    2.55
  -3   8 -11    7.28    2.84
  -3   8 -11   10.63    2.55
   3  -8  10   55.78    4.00
  -3   8 -10   59.71    4.88
  -3   8 -10   58.03    4.30
   3  -8   9  153.06    5.61
  -3   8  -9  158.23    6.55
  -3   8  -9  147.96    5.90
   3  -8   8  104.71    4.73
  -3   8  -8  102.23    5.32
  -3   8  -8  104.93    5.02
   3  -8   7  315.22    7.28
  -3   8  -7  332.47    8.30
  -3   8  -7  307.13    7.72
   3  -8   6  328.25    7.28
  -3   8  -6  330.43    7.94
  -3   8  -6  315.58    7.65
   3  -8   5   49.22    3.28
   3  -8   5   43.98    3.42
  -3   8  -5   46.75    3.57
   3  -8   4   61.46    3.50
   3  -8   4   66.19    3.79
  -3   8  -4   70.70    3.86
  -3   8  -4   69.98    2.84
  -3   8  -4   67.79    3.79
   3  -8   3  267.01    6.33
   3  -8   3  281.72    6.48
  -3   8  -3  282.81    6.84
  -3   8  -3  274.95    4.95
  -3   8  -3  268.40    6.33
   3  -8   2   31.24    2.77
   3  -8   2   32.04    2.69
  -3   8  -2   33.28    2.99
  -3   8  -2   35.10    2.33
  -3   8  -2   32.33    2.62
  -3   8  -2   32.48    1.67
  -3   8  -2   27.38    1.53
   3  -8   1  378.35    7.50
   3  -8   1  394.95    6.99
  -3   8  -1  382.71    7.79
  -3   8  -1  393.78    6.63
  -3   8  -1  374.92    5.39
  -3   8  -1  333.13    5.10
   3  -8   0  111.84    4.37
   3  -8   0  120.00    4.51
  -3   8   0  120.07    4.66
  -3   8   0  116.65    4.00
  -3   8   0  124.95    3.50
  -3   8   0  101.65    3.13
   3  -8  -1   15.00    2.26
   3  -8  -1   15.58    2.18
  -3   8   1   14.27    2.33
  -3   8   1   13.83    2.11
  -3   8   1   15.00    1.67
   3  -8  -2  110.31    4.44
   3  -8  -2  115.05    4.30
   3  -8  -2  105.95    3.50
   3  -8  -2  105.65    3.42
  -3   8   2  109.59    4.51
  -3   8   2  113.01    4.37
   3  -8  -3  143.59    5.10
   3  -8  -3  145.78    4.66
   3  -8  -3  146.28    3.93
   3  -8  -3  133.47    3.71
  -3   8   3  135.80    4.88
  -3   8   3  147.81    5.02
   3  -8  -4  135.00    4.51
   3  -8  -4  138.57    3.71
   3  -8  -4  133.98    3.57
  -3   8   4  132.45    4.88
  -3   8   4  142.43    5.10
   3  -8  -5   44.56    2.91
   3  -8  -5   43.03    2.18
   3  -8  -5   36.33    1.89
  -3   8   5   41.58    3.13
  -3   8   5   40.05    3.28
   3  -8  -6   58.32    3.20
   3  -8  -6   56.80    2.11
   3  -8  -6   52.35    1.97
  -3   8   6   53.96    3.57
  -3   8   6   58.76    4.00
   3  -8  -7   13.76    2.04
   3  -8  -7    9.98    2.40
  -3   8   7   13.11    2.26
  -3   8   7   10.41    2.48
   3  -8  -8   72.45    4.66
  -3   8   8   74.78    4.00
  -3   8   8   80.61    4.88
   3  -8  -9   54.76    4.44
  -3   8   9   50.10    4.30
   3  -8 -10  145.19    6.48
  -3   8  10  145.34    6.55
   3  -8 -11   48.49    4.66
  -3   8  11   49.00    4.66
   3  -8 -12    5.17    2.55
  -3   8  12   -0.36    1.97
   3  -8 -13   14.85    3.50
  -3   8  13   13.91    3.35
   3  -8 -14  112.35    6.99
  -3   8  14  116.87    6.84
   3  -8 -15   33.93    6.63
  -3   8  15   40.56    4.95
  -4   8 -15    2.26    3.13
  -4   8 -14   22.94    4.37
  -4   8 -13   46.75    5.32
   4  -8  12    1.02    1.82
  -4   8 -12    0.58    2.40
   4  -8  11   13.18    2.69
  -4   8 -11   11.21    2.99
  -4   8 -11    9.90    2.48
   4  -8  10   52.06    4.08
  -4   8 -10   46.60    4.44
  -4   8 -10   48.35    3.93
   4  -8   9   27.16    3.28
  -4   8  -9   26.94    3.57
  -4   8  -9   30.00    3.42
   4  -8   8  570.65   10.19
  -4   8  -8  565.12   10.92
  -4   8  -8  580.70   10.34
   4  -8   7   49.44    3.64
  -4   8  -7   52.43    3.57
  -4   8  -7   48.71    3.86
  -4   8  -7   46.09    3.57
   4  -8   6   47.33    3.50
  -4   8  -6   53.88    3.50
  -4   8  -6   54.32    3.79
   4  -8   5  212.98    6.04
  -4   8  -5  228.71    6.19
  -4   8  -5  212.11    6.04
   4  -8   4   22.65    2.69
  -4   8  -4   18.06    2.48
  -4   8  -4   19.88    2.48
   4  -8   3   71.65    3.71
  -4   8  -3   80.97    3.93
  -4   8  -3   76.31    3.57
  -4   8  -3   80.02    2.18
  -4   8  -3   67.43    2.04
   4  -8   2  117.38    4.51
   4  -8   2  119.13    4.08
  -4   8  -2  123.49    4.66
  -4   8  -2  124.59    4.15
  -4   8  -2  122.04    3.13
  -4   8  -2   98.08    2.77
   4  -8   1  223.25    5.97
   4  -8   1  237.59    5.24
  -4   8  -1  233.23    6.19
  -4   8  -1  240.36    5.24
  -4   8  -1  252.59    4.66
  -4   8  -1  195.87    4.08
   4  -8   0  291.70    6.77
   4  -8   0  302.11    5.53
  -4   8   0  295.05    6.84
  -4   8   0  291.19    5.24
  -4   8   0  257.55    4.88
   4  -8  -1  645.94    9.90
   4  -8  -1  697.35    9.76
   4  -8  -1  641.43    7.94
  -4   8   1  673.76   10.19
  -4   8   1  729.97    8.45
  -4   8   1  564.46    7.43
   4  -8  -2  390.29    7.86
   4  -8  -2  381.40    7.14
   4  -8  -2  385.55    6.12
   4  -8  -2  348.71    5.83
  -4   8   2  364.00    7.57
  -4   8   2  377.98    7.43
   4  -8  -3   73.69    3.86
   4  -8  -3   77.55    3.50
   4  -8  -3   73.03    2.77
   4  -8  -3   69.98    2.69
  -4   8   3   71.43    3.79
  -4   8   3   78.35    3.86
   4  -8  -4  105.14    4.51
   4  -8  -4  112.06    3.93
   4  -8  -4  107.69    3.13
   4  -8  -4  100.12    2.99
  -4   8   4  105.95    4.44
  -4   8   4  109.30    4.66
   4  -8  -5  122.69    4.08
   4  -8  -5  140.97    3.20
   4  -8  -5  105.00    2.77
  -4   8   5  119.78    4.66
  -4   8   5  125.02    5.02
   4  -8  -6  313.61    6.04
  -4   8   6  304.51    7.14
  -4   8   6  312.23    7.86
   4  -8  -7  722.40   12.01
  -4   8   7  716.86   10.70
  -4   8   7  734.19   12.16
   4  -8  -8   82.50    4.95
  -4   8   8   86.07    4.22
  -4   8   8   84.76    4.88
   4  -8  -9   81.77    5.17
  -4   8   9   86.29    4.22
  -4   8   9   84.90    5.10
   4  -8 -10   64.37    4.88
  -4   8  10   76.02    5.17
   4  -8 -11   38.01    4.51
  -4   8  11   39.10    4.37
   4  -8 -12   12.82    3.28
  -4   8  12   13.03    3.20
   4  -8 -13   29.42    4.51
  -4   8  13   29.13    4.15
   4  -8 -14   25.49    4.44
  -4   8  14   22.72    3.93
   4  -8 -15   -0.36    3.13
  -4   8  15    2.26    2.48
  -5   8 -15   31.38    5.61
   5  -8  14   55.70    5.24
  -5   8 -14   57.45    5.97
   5  -8  13   34.95    4.22
  -5   8 -13   37.72    4.95
   5  -8  12   66.84    4.95
  -5   8 -12   77.98    5.90
   5  -8  11   29.27    3.64
  -5   8 -11   36.26    4.51
   5  -8  10  138.28    5.97
  -5   8 -10  154.73    6.84
  -5   8 -10  142.64    5.53
   5  -8   9   23.16    3.28
  -5   8  -9   17.40    3.13
  -5   8  -9   19.08    2.69
   5  -8   8  257.25    7.28
  -5   8  -8  288.13    6.84
  -5   8  -8  267.81    7.86
   5  -8   7   93.79    4.73
  -5   8  -7  102.67    4.44
  -5   8  -7   98.08    4.88
   5  -8   6   15.58    2.48
  -5   8  -6   15.87    2.40
  -5   8  -6   16.97    2.69
   5  -8   5   37.79    3.28
  -5   8  -5   37.72    3.13
  -5   8  -5   36.26    3.13
   5  -8   4    5.32    1.75
  -5   8  -4    4.95    1.75
  -5   8  -4    3.50    1.60
  -5   8  -4    6.48    0.87
  -5   8  -4    4.73    0.73
   5  -8   3    6.12    1.82
  -5   8  -3    5.83    1.75
  -5   8  -3    6.41    1.67
  -5   8  -3    5.53    1.09
  -5   8  -3    5.53    0.95
   5  -8   2   11.29    2.04
  -5   8  -2   14.13    2.18
  -5   8  -2   13.98    1.89
  -5   8  -2   12.96    1.53
  -5   8  -2   11.58    1.31
   5  -8   1  457.28    8.45
  -5   8  -1  454.00    8.45
  -5   8  -1  444.97    5.10
  -5   8  -1  459.46    6.92
  -5   8  -1  445.70    6.41
  -5   8  -1  386.14    5.90
   5  -8   0  109.30    4.44
   5  -8   0  117.01    3.50
   5  -8   0  111.84    3.13
  -5   8   0  116.14    4.59
  -5   8   0  109.59    3.06
  -5   8   0  109.00    3.35
   5  -8  -1  397.71    7.94
   5  -8  -1  422.40    5.75
   5  -8  -1  394.51    5.97
   5  -8  -1  386.28    6.19
   5  -8  -1  381.70    6.12
  -5   8   1  408.42    8.08
  -5   8   1  395.53    5.97
   5  -8  -2  163.54    5.32
   5  -8  -2  168.13    4.37
   5  -8  -2  159.25    3.93
   5  -8  -2  159.90    3.93
  -5   8   2  173.08    5.46
  -5   8   2  170.61    4.37
   5  -8  -3  110.31    4.59
   5  -8  -3  112.28    3.86
   5  -8  -3  107.18    3.93
   5  -8  -3  104.27    3.13
   5  -8  -3  108.93    3.13
  -5   8   3  108.35    4.51
  -5   8   3  106.38    3.86
   5  -8  -4  228.86    6.41
   5  -8  -4  237.96    5.32
   5  -8  -4  216.84    5.61
   5  -8  -4  223.10    4.08
   5  -8  -4  212.69    3.93
  -5   8   4  229.80    6.26
  -5   8   4  228.20    5.68
   5  -8  -5  169.08    5.75
   5  -8  -5  162.38    4.37
   5  -8  -5  149.71    2.84
   5  -8  -5  144.90    2.77
  -5   8   5  161.72    5.39
  -5   8   5  167.55    5.32
   5  -8  -6  215.60    5.46
  -5   8   6  164.20    5.46
  -5   8   6  215.90    6.26
  -5   8   6  206.79    6.55
   5  -8  -7  173.08    6.33
  -5   8   7  181.16    5.75
  -5   8   7  190.41    6.19
  -5   8   7  180.58    6.41
   5  -8  -8   18.35    3.06
  -5   8   8   15.36    2.48
  -5   8   8   19.00    3.13
  -5   8   8   21.12    3.13
   5  -8  -9   55.70    4.51
  -5   8   9   51.12    3.64
  -5   8   9   50.68    4.37
   5  -8 -10    9.10    2.77
  -5   8  10    8.30    2.77
   5  -8 -11   20.24    3.64
  -5   8  11   25.05    3.93
   5  -8 -12   56.36    5.32
  -5   8  12   56.14    5.17
   5  -8 -13   24.17    4.22
  -5   8  13   20.10    3.64
   5  -8 -14   12.23    3.64
  -5   8  14   21.55    4.00
   5  -8 -15   27.52    5.10
  -5   8  15   25.70    4.08
   6  -8  15   18.42    3.71
   6  -8  14   55.05    5.24
  -6   8 -14   56.36    6.04
   6  -8  13  175.41    7.50
  -6   8 -13  184.44    8.37
   6  -8  12   47.62    4.73
  -6   8 -12   54.10    5.17
   6  -8  11   37.43    4.30
  -6   8 -11   36.70    4.51
   6  -8  10  294.03    8.52
  -6   8 -10  312.01    9.10
   6  -8   9  107.47    5.46
  -6   8  -9  107.98    5.61
   6  -8   8   16.46    2.84
  -6   8  -8   20.83    2.69
  -6   8  -8   19.08    3.06
   6  -8   7  119.63    5.39
  -6   8  -7  119.71    4.81
  -6   8  -7  106.60    5.10
   6  -8   6  193.69    6.33
  -6   8  -6  199.59    5.90
  -6   8  -6  201.19    6.33
   6  -8   5  105.95    4.88
  -6   8  -5  125.61    4.88
  -6   8  -5  110.10    4.59
   6  -8   4  260.46    6.92
  -6   8  -4  281.21    6.84
  -6   8  -4  260.75    6.33
  -6   8  -4  278.88    4.30
  -6   8  -4  242.40    4.00
   6  -8   3   20.24    2.55
  -6   8  -3   22.50    2.77
  -6   8  -3   19.15    2.40
  -6   8  -3   20.10    1.75
  -6   8  -3   17.62    1.53
   6  -8   2   53.52    3.50
   6  -8   2   55.99    2.33
  -6   8  -2   59.13    3.64
  -6   8  -2   55.27    2.99
  -6   8  -2   58.91    2.55
  -6   8  -2   46.09    2.26
   6  -8   1  766.81   11.14
   6  -8   1  804.09    7.65
  -6   8  -1  796.16   11.29
  -6   8  -1  776.35    8.74
  -6   8  -1  777.23    8.66
  -6   8  -1  656.13    7.94
   6  -8   0  159.03    5.39
   6  -8   0  164.05    4.00
   6  -8   0  153.93    5.17
  -6   8   0  157.28    5.39
  -6   8   0  154.44    3.79
   6  -8  -1   29.42    2.91
   6  -8  -1   33.71    1.97
   6  -8  -1   33.20    2.40
   6  -8  -1   28.98    2.11
   6  -8  -1   28.98    2.04
  -6   8   1   35.75    3.13
  -6   8   1   33.28    1.89
   6  -8  -2  412.57    8.30
   6  -8  -2  404.92    6.84
   6  -8  -2  382.42    5.90
   6  -8  -2  398.95    5.97
  -6   8   2  403.47    8.23
   6  -8  -3   37.21    3.13
   6  -8  -3   36.04    2.84
   6  -8  -3   33.49    2.04
   6  -8  -3   34.00    1.97
  -6   8   3   37.43    3.20
  -6   8   3   38.01    2.77
   6  -8  -4  353.52    7.86
   6  -8  -4  356.65    7.28
   6  -8  -4  344.71    4.66
   6  -8  -4  313.47    4.37
  -6   8   4  335.82    7.65
  -6   8   4  341.79    7.14
   6  -8  -5  362.25    8.16
   6  -8  -5  361.09    6.12
   6  -8  -5  339.97    7.50
  -6   8   5  354.54    7.94
  -6   8   5  353.88    7.65
   6  -8  -6  216.19    6.55
   6  -8  -6  214.44    6.48
  -6   8   6  221.36    6.41
  -6   8   6  215.02    6.33
   6  -8  -7    8.23    2.55
   6  -8  -7   10.63    2.48
  -6   8   7    8.37    2.11
  -6   8   7    9.76    2.40
   6  -8  -8  551.94   11.07
   6  -8  -8  528.27   10.63
  -6   8   8  557.18    9.90
  -6   8   8  533.22   10.63
   6  -8  -9  118.47    5.97
  -6   8   9  123.93    5.10
  -6   8   9  115.56    5.75
  -6   8   9  121.82    5.97
   6  -8 -10  267.38    8.59
  -6   8  10  273.64    8.52
  -6   8  10  273.93    8.66
   6  -8 -11  177.01    7.57
  -6   8  11  185.10    7.50
  -6   8  11  191.14    7.57
   6  -8 -12   11.58    3.35
  -6   8  12   12.09    3.13
   6  -8 -13   64.59    5.75
  -6   8  13   67.64    5.68
   6  -8 -14   27.74    4.66
  -6   8  14   31.82    4.51
   6  -8 -15    2.33    3.35
  -6   8  15    0.22    2.33
   7  -8  15   12.09    3.42
   7  -8  14   36.70    4.88
  -7   8 -14   45.80    5.61
   7  -8  13   45.22    5.02
  -7   8 -13   51.04    5.53
   7  -8  12   16.67    3.42
  -7   8 -12   17.26    3.79
   7  -8  11   56.07    4.88
  -7   8 -11   58.18    5.10
   7  -8  10   37.79    4.22
  -7   8 -10   35.53    4.22
   7  -8   9  144.10    6.26
  -7   8  -9  138.13    6.19
   7  -8   8   65.17    4.51
  -7   8  -8   70.48    4.00
  -7   8  -8   70.99    4.59
   7  -8   7  255.51    7.65
  -7   8  -7  288.93    7.14
  -7   8  -7  248.88    7.28
   7  -8   6   24.98    3.20
  -7   8  -6   27.82    3.13
  -7   8  -6   26.36    3.20
   7  -8   5    6.55    2.11
  -7   8  -5    6.33    1.89
  -7   8  -5    5.90    1.97
  -7   8  -5    6.41    1.24
  -7   8  -5    6.48    1.02
   7  -8   4   63.20    4.08
  -7   8  -4   74.27    4.15
  -7   8  -4   69.90    3.79
  -7   8  -4   71.07    2.69
  -7   8  -4   64.22    2.48
   7  -8   3   69.10    4.08
  -7   8  -3   84.47    4.30
  -7   8  -3   73.18    3.57
  -7   8  -3   80.75    3.06
  -7   8  -3   62.98    2.62
   7  -8   2  108.71    4.73
   7  -8   2  110.10    3.28
  -7   8  -2  114.68    4.81
  -7   8  -2  110.61    3.93
  -7   8  -2  117.74    3.64
  -7   8  -2   90.95    3.20
   7  -8   1  321.84    7.50
   7  -8   1  342.16    5.75
  -7   8  -1  329.05    7.57
  -7   8  -1  333.56    5.97
   7  -8   0  147.01    5.24
   7  -8   0  152.55    4.22
   7  -8   0  157.64    4.95
   7  -8   0  142.13    4.08
  -7   8   0  146.07    5.32
  -7   8   0  148.54    3.79
   7  -8  -1  164.20    5.53
   7  -8  -1  163.98    4.59
   7  -8  -1  157.50    4.08
   7  -8  -1  146.21    3.93
  -7   8   1  167.55    5.32
   7  -8  -2  606.91   10.12
   7  -8  -2  600.14    8.74
   7  -8  -2  538.32    6.84
   7  -8  -2  571.67    6.99
  -7   8   2  579.24   10.05
   7  -8  -3  589.14    9.10
   7  -8  -3  557.76    6.33
   7  -8  -3  560.75    6.33
  -7   8   3  590.67   10.19
   7  -8  -4  475.92    9.17
   7  -8  -4  481.74    8.66
   7  -8  -4  432.59    4.44
   7  -8  -4  428.66    4.44
  -7   8   4  453.78    9.10
   7  -8  -5  165.87    5.75
   7  -8  -5  170.61    5.75
  -7   8   5  160.48    5.75
   7  -8  -6   26.80    3.13
   7  -8  -6   24.54    3.13
  -7   8   6   25.92    3.13
  -7   8   6   22.28    2.99
   7  -8  -7   25.99    3.42
  -7   8   7   28.62    3.28
  -7   8   7   27.38    3.50
   7  -8  -8  124.95    5.97
   7  -8  -8  132.89    6.04
  -7   8   8  135.07    5.46
  -7   8   8  127.64    5.83
   7  -8  -9  156.26    6.63
   7  -8  -9  160.41    6.92
  -7   8   9  171.99    6.12
  -7   8   9  154.44    6.63
   7  -8 -10   12.96    3.13
   7  -8 -10   13.62    3.06
  -7   8  10   11.80    2.55
  -7   8  10   12.52    3.13
   7  -8 -11  194.71    7.86
   7  -8 -11  195.43    8.08
  -7   8  11  195.87    7.94
  -7   8  11  195.58    7.79
   7  -8 -12   43.83    5.10
  -7   8  12   46.89    4.95
  -7   8  12   46.16    4.95
   7  -8 -13    3.57    2.84
  -7   8  13    6.12    2.99
  -7   8  13    4.00    2.62
   7  -8 -14   71.21    6.26
  -7   8  14   78.35    6.12
  -7   8  15   47.04    5.53
   8  -8  14    5.24    2.84
  -8   8 -14    3.50    3.79
   8  -8  13   26.80    4.30
  -8   8 -13   32.40    4.81
   8  -8  12   73.62    5.68
  -8   8 -12   73.69    5.90
   8  -8  11   90.58    5.90
  -8   8 -11   91.75    6.12
   8  -8  10    9.10    2.69
  -8   8 -10    8.66    2.77
   8  -8   9   40.56    4.37
  -8   8  -9   42.89    4.37
   8  -8   8   55.63    4.51
  -8   8  -8   60.87    3.93
  -8   8  -8   52.43    4.22
   8  -8   7   40.63    4.00
  -8   8  -7   57.31    3.93
  -8   8  -7   47.48    4.08
   8  -8   6  191.94    6.84
  -8   8  -6  228.78    6.70
  -8   8  -6  201.62    6.48
  -8   8  -6  196.75    3.35
  -8   8  -6  207.38    3.50
   8  -8   5   33.13    3.64
  -8   8  -5   44.42    3.64
  -8   8  -5   33.06    3.28
  -8   8  -5   39.61    2.26
  -8   8  -5   36.48    2.04
   8  -8   4    4.88    1.89
  -8   8  -4    3.93    1.82
  -8   8  -4    6.26    1.89
  -8   8  -4    5.75    1.38
  -8   8  -4    4.95    1.24
   8  -8   3  114.68    5.10
   8  -8   3  127.86    5.83
  -8   8  -3  125.68    5.24
  -8   8  -3  119.63    4.44
  -8   8  -3  127.06    3.93
  -8   8  -3  103.76    3.50
   8  -8   2   29.27    3.13
   8  -8   2   26.94    2.33
  -8   8  -2   28.11    3.28
  -8   8  -2   28.54    2.62
   8  -8   1  187.28    6.12
   8  -8   1  191.14    4.88
  -8   8  -1  196.31    6.33
  -8   8  -1  183.06    4.66
   8  -8   0   80.24    4.30
   8  -8   0   81.70    3.64
   8  -8   0   72.16    3.13
   8  -8   0   73.03    3.13
  -8   8   0   81.92    4.51
  -8   8   0   80.31    3.06
   8  -8  -1  429.39    8.81
   8  -8  -1  433.18    7.72
   8  -8  -1  406.09    6.33
   8  -8  -1  412.86    6.41
  -8   8   1  421.82    8.96
   8  -8  -2  211.38    6.33
   8  -8  -2  214.73    5.83
   8  -8  -2  207.59    4.30
   8  -8  -2  207.67    4.30
  -8   8   2  211.31    6.63
   8  -8  -3  629.41   10.56
   8  -8  -3  615.72    9.83
   8  -8  -3  646.45    6.33
   8  -8  -3  572.69    5.90
  -8   8   3  626.21   10.92
   8  -8  -4  325.92    7.79
   8  -8  -4  325.12    7.65
  -8   8   4  317.25    8.01
   8  -8  -5  106.75    4.88
   8  -8  -5  109.73    5.10
  -8   8   5  106.53    5.17
   8  -8  -6   80.31    4.44
   8  -8  -6   80.24    4.73
  -8   8   6   66.48    4.37
   8  -8  -7    1.09    1.67
   8  -8  -7    0.07    1.97
  -8   8   7    0.80    1.75
   8  -8  -8   16.46    3.13
   8  -8  -8   15.15    3.06
  -8   8   8   14.13    2.69
  -8   8   8   15.29    3.13
   8  -8  -9   70.41    5.10
   8  -8  -9   73.03    5.32
  -8   8   9   73.98    4.66
  -8   8   9   75.36    5.24
   8  -8 -10   15.51    3.28
   8  -8 -10   16.97    3.50
  -8   8  10   11.00    2.55
  -8   8  10   13.03    3.28
   8  -8 -11   28.62    4.22
   8  -8 -11   21.84    3.93
  -8   8  11   28.83    4.37
   8  -8 -12   14.71    3.50
   8  -8 -12   15.22    3.57
  -8   8  12   16.16    3.50
  -8   8  12   13.98    3.28
   8  -8 -13    3.50    2.62
  -8   8  13    5.32    2.99
  -8   8  13    2.84    2.48
   8  -8 -14   27.16    4.51
  -8   8  14   28.40    6.33
  -8   8  14   27.31    4.37
   9  -8  13   82.28    6.33
  -9   8 -13   88.98    6.77
   9  -8  12    2.62    2.55
  -9   8 -12    3.13    2.69
   9  -8  11    3.50    2.48
  -9   8 -11    4.37    2.62
   9  -8  10   16.82    3.50
  -9   8 -10   16.24    3.42
   9  -8   9    6.55    2.55
  -9   8  -9    4.51    2.40
   9  -8   8    1.67    2.04
  -9   8  -8    3.93    1.97
  -9   8  -8    2.69    2.11
   9  -8   7   34.22    4.00
  -9   8  -7   41.80    3.71
  -9   8  -7   38.74    3.93
   9  -8   6    5.97    2.33
  -9   8  -6    5.83    2.18
  -9   8  -6    3.50    2.04
  -9   8  -6    5.39    1.24
  -9   8  -6    7.28    1.46
   9  -8   5   18.93    3.06
  -9   8  -5   24.68    3.20
  -9   8  -5   21.99    2.99
  -9   8  -5   20.17    2.11
  -9   8  -5   19.59    1.89
   9  -8   4  265.34    7.79
  -9   8  -4  282.01    7.72
  -9   8  -4  265.34    6.84
  -9   8  -4  285.36    5.83
  -9   8  -4  239.49    5.24
   9  -8   3    6.84    2.18
   9  -8   3    6.04    1.67
  -9   8  -3    9.39    2.40
  -9   8  -3    6.99    1.89
   9  -8   2  181.45    6.33
   9  -8   2  189.46    5.24
  -9   8  -2  187.28    6.48
  -9   8  -2  174.68    5.10
   9  -8   1  152.91    5.83
   9  -8   1  158.88    4.95
  -9   8  -1  164.05    6.12
  -9   8  -1  146.21    4.44
   9  -8   0  288.27    7.57
   9  -8   0  306.19    6.84
   9  -8   0  283.83    5.68
   9  -8   0  268.32    5.53
  -9   8   0  289.51    7.86
   9  -8  -1  277.57    7.43
   9  -8  -1  273.42    6.77
   9  -8  -1  250.19    5.02
   9  -8  -1  268.10    5.17
  -9   8   1  267.30    7.65
   9  -8  -2  738.41   11.58
   9  -8  -2  717.52   10.85
   9  -8  -2  680.24    7.21
   9  -8  -2  700.84    7.28
  -9   8   2  706.59   12.01
   9  -8  -3  222.52    6.70
   9  -8  -3  223.25    6.70
  -9   8   3  218.66    7.06
   9  -8  -4  275.97    7.35
   9  -8  -4  266.94    7.43
  -9   8   4  270.73    7.86
   9  -8  -5  111.12    5.10
   9  -8  -5  109.59    5.32
  -9   8   5  107.55    5.46
   9  -8  -6   80.68    4.51
   9  -8  -6   76.02    5.02
  -9   8   6   75.58    4.81
   9  -8  -7   19.37    2.91
   9  -8  -7   18.49    3.35
  -9   8   7   14.85    2.84
   9  -8  -8   70.41    5.02
   9  -8  -8   74.85    5.39
  -9   8   8   76.53    4.88
   9  -8  -9   27.45    3.79
   9  -8  -9   31.09    4.37
  -9   8   9   23.81    3.35
   9  -8 -10   21.84    3.71
   9  -8 -10   27.01    4.37
  -9   8  10   19.44    3.13
  -9   8  10   19.30    3.71
   9  -8 -11    3.93    2.69
   9  -8 -11    6.70    3.06
  -9   8  11    6.99    3.06
   9  -8 -12   25.92    4.30
   9  -8 -12   21.12    4.15
  -9   8  12   17.99    3.86
   9  -8 -13   11.14    3.35
   9  -8 -13    9.76    3.50
  -9   8  13    7.28    3.20
  -9   8  13    8.16    3.20
   9  -8 -14   11.94    3.79
  -9   8  14    9.10    3.35
  10  -8  12   14.34    3.64
 -10   8 -12   13.91    3.79
  10  -8  11   26.50    4.30
 -10   8 -11   24.98    4.15
  10  -8  10    9.83    2.99
 -10   8 -10   11.43    3.20
  10  -8   9   29.20    4.00
 -10   8  -9   36.12    4.30
  10  -8   8   76.53    5.46
 -10   8  -8   83.66    5.97
 -10   8  -8   76.46    5.32
  10  -8   7   12.89    3.06
 -10   8  -7   14.64    2.77
 -10   8  -7   13.33    2.84
 -10   8  -7   15.15    1.53
 -10   8  -7   14.71    1.67
  10  -8   6    5.75    2.40
 -10   8  -6    7.43    2.33
 -10   8  -6    7.86    2.48
 -10   8  -6    6.48    1.46
 -10   8  -6    7.06    1.53
  10  -8   5   15.95    2.99
 -10   8  -5   17.84    3.06
 -10   8  -5   18.71    2.91
 -10   8  -5   18.79    2.18
 -10   8  -5   16.60    1.97
  10  -8   4  300.29    8.52
 -10   8  -4  315.43    8.52
 -10   8  -4  292.42    7.43
  10  -8   3   77.91    4.88
  10  -8   3   81.70    4.15
 -10   8  -3   92.62    5.24
 -10   8  -3   84.76    4.30
  10  -8   2  141.19    5.97
  10  -8   2  135.58    5.02
 -10   8  -2  147.96    6.19
 -10   8  -2  138.86    4.95
  10  -8   1   92.98    5.02
  10  -8   1   99.54    4.59
 -10   8  -1   95.02    5.32
  10  -8   0  327.59    8.37
  10  -8   0  324.10    7.65
  10  -8   0  324.03    6.12
  10  -8   0  299.85    5.90
 -10   8   0  340.12    8.88
  10  -8  -1  568.76   10.63
  10  -8  -1  574.14   10.19
  10  -8  -1  574.00    7.28
  10  -8  -1  533.95    6.99
 -10   8   1  562.86   11.29
  10  -8  -2  238.25    7.06
  10  -8  -2  242.62    7.14
  10  -8  -2  226.67    4.00
  10  -8  -2  222.45    3.93
 -10   8   2  243.27    7.72
  10  -8  -3   51.55    3.93
  10  -8  -3   53.08    4.30
 -10   8   3   53.01    4.51
  10  -8  -4   82.35    4.59
  10  -8  -4   82.35    5.02
 -10   8   4   75.36    5.02
  10  -8  -5   17.77    2.77
  10  -8  -5   15.15    3.06
 -10   8   5   17.40    3.13
  10  -8  -6   38.88    3.71
  10  -8  -6   36.48    4.30
 -10   8   6   36.84    4.15
  10  -8  -7   22.72    3.13
  10  -8  -7   17.62    2.99
  10  -8  -7   19.73    3.57
 -10   8   7   18.49    3.28
  10  -8  -8   45.58    4.44
  10  -8  -8   50.32    5.02
 -10   8   8   46.67    4.44
  10  -8  -9    3.42    2.33
  10  -8  -9    2.26    2.62
 -10   8   9    5.32    2.55
  10  -8 -10   38.96    4.66
  10  -8 -10   35.90    4.81
 -10   8  10   38.59    4.30
  10  -8 -11   60.07    5.32
  10  -8 -11   63.71    6.12
 -10   8  11   62.55    5.75
  10  -8 -12    9.03    3.13
  10  -8 -12    4.15    3.20
 -10   8  12    9.61    3.42
  11  -8  11   10.49    3.20
 -11   8 -11    7.28    3.20
  11  -8  10   25.70    4.37
 -11   8 -10   29.78    4.44
  11  -8   9   11.43    3.06
 -11   8  -9   13.33    3.42
  11  -8   8    2.77    2.40
 -11   8  -8    3.50    2.40
  11  -8   7   75.95    5.53
 -11   8  -7   83.59    5.24
 -11   8  -7   80.17    5.46
 -11   8  -7   73.76    2.91
 -11   8  -7   75.65    3.06
  11  -8   6   13.40    3.13
 -11   8  -6   20.02    3.20
 -11   8  -6   14.64    2.99
 -11   8  -6   18.42    2.26
 -11   8  -6   15.00    2.11
  11  -8   5   38.15    4.37
 -11   8  -5   43.32    4.44
 -11   8  -5   36.19    3.93
  11  -8   4   44.34    4.44
 -11   8  -4   51.33    4.59
 -11   8  -4   46.38    3.93
  11  -8   3   30.51    3.79
  11  -8   3   32.62    3.57
 -11   8  -3   35.32    4.30
 -11   8  -3   26.58    3.20
  11  -8   2   75.14    4.95
  11  -8   2   76.82    4.51
 -11   8  -2   90.00    5.61
  11  -8   1  240.65    7.65
  11  -8   1  229.66    6.99
 -11   8  -1  240.22    8.16
  11  -8   0    5.90    2.33
  11  -8   0    7.50    2.40
  11  -8   0    6.04    1.53
  11  -8   0    6.92    1.60
 -11   8   0    5.53    2.55
  11  -8  -1  161.94    6.33
  11  -8  -1  153.28    6.19
  11  -8  -1  143.37    3.64
  11  -8  -1  145.48    3.71
 -11   8   1  155.17    6.84
  11  -8  -2   69.83    4.51
  11  -8  -2   64.95    4.81
 -11   8   2   70.12    5.24
  11  -8  -3   41.58    3.79
  11  -8  -3   35.82    4.08
 -11   8   3   37.72    4.30
  11  -8  -4    7.72    2.26
  11  -8  -4    9.68    2.84
 -11   8   4    5.90    2.69
  11  -8  -5   13.69    2.69
  11  -8  -5   12.23    3.13
 -11   8   5   10.63    2.99
  11  -8  -6   56.65    5.32
 -11   8   6   56.43    4.95
  11  -8  -7    5.75    2.40
  11  -8  -7    7.35    2.99
 -11   8   7    6.26    2.69
  11  -8  -8   24.32    4.22
 -11   8   8   22.43    3.71
  11  -8  -9    1.97    2.77
 -11   8   9    2.33    2.48
  11  -8 -10   15.15    3.93
 -11   8  10   11.94    3.13
  11  -8 -11   11.00    3.79
  12  -8  10   32.62    5.02
 -12   8 -10   36.99    5.10
  12  -8   9   20.39    4.08
 -12   8  -9   19.44    4.00
  12  -8   8   56.21    5.53
 -12   8  -8   57.74    5.46
  12  -8   7   42.01    5.02
 -12   8  -7   47.69    4.81
 -12   8  -7   40.70    4.59
 -12   8  -7   39.61    2.62
 -12   8  -7   39.25    2.77
  12  -8   6    8.37    2.91
 -12   8  -6    9.03    2.84
 -12   8  -6    7.35    2.62
  12  -8   5    3.79    2.48
 -12   8  -5    2.11    2.48
 -12   8  -5    3.64    2.26
  12  -8   4   75.51    5.39
 -12   8  -4   79.95    5.68
 -12   8  -4   79.66    4.88
  12  -8   3   13.98    3.06
  12  -8   3   10.34    2.62
 -12   8  -3   15.29    3.28
  12  -8   2  230.82    7.94
  12  -8   2  224.63    7.35
 -12   8  -2  234.46    8.45
  12  -8   1  240.00    7.86
  12  -8   1  224.27    7.50
  12  -8   1  227.62    5.68
  12  -8   1  216.55    5.39
 -12   8  -1  235.99    8.45
  12  -8   0   81.48    5.17
  12  -8   0   77.98    5.17
  12  -8   0   74.49    3.06
  12  -8   0   77.26    3.20
 -12   8   0   83.30    5.90
  12  -8  -1   54.25    4.44
  12  -8  -1   56.07    4.66
  12  -8  -1   48.57    2.11
  12  -8  -1   49.15    2.18
 -12   8   1   57.81    5.32
  12  -8  -2   24.76    3.42
  12  -8  -2   26.21    3.79
 -12   8   2   27.89    4.00
  12  -8  -3    5.53    2.18
  12  -8  -3    4.59    2.69
 -12   8   3    5.39    2.84
  12  -8  -4   16.89    3.50
 -12   8   4   17.11    3.57
  12  -8  -5   86.87    6.04
 -12   8   5   73.76    5.83
  12  -8  -6   29.64    4.44
 -12   8   6   38.23    4.81
  12  -8  -7    4.00    2.91
 -12   8   7    3.71    2.69
  12  -8  -8    3.93    2.99
 -12   8   8    2.77    2.62
  12  -8  -9    1.60    2.91
 -12   8   9    2.99    2.77
  12  -8 -10   13.33    4.08
 -12   8  10   13.91    3.57
 -13   8  -9    8.81    3.42
  13  -8   8    4.44    2.99
 -13   8  -8    5.17    2.99
 -13   8  -8    5.97    1.38
 -13   8  -8    4.59    1.38
  13  -8   7    2.48    2.69
 -13   8  -7   -0.15    2.48
 -13   8  -7    0.22    2.48
  13  -8   6    1.82    2.55
 -13   8  -6   -0.15    2.48
 -13   8  -6    1.24    2.33
  13  -8   5   24.90    4.00
 -13   8  -5   24.47    3.93
 -13   8  -5   24.32    4.30
  13  -8   4   23.37    3.79
 -13   8  -4   23.59    4.00
  13  -8   3   61.53    5.24
  13  -8   3   69.47    5.10
 -13   8  -3   69.76    5.75
  13  -8   2    6.70    2.84
  13  -8   2    7.79    2.84
 -13   8  -2    6.84    2.91
  13  -8   1   55.56    4.88
  13  -8   1   56.58    4.95
  13  -8   1   53.74    2.99
  13  -8   1   50.82    3.06
 -13   8  -1   60.36    5.68
  13  -8   0   10.85    2.84
  13  -8   0   11.29    3.13
  13  -8   0    9.17    1.46
  13  -8   0   10.27    1.60
 -13   8   0   12.45    3.50
  13  -8  -1   73.76    5.10
  13  -8  -1   70.85    5.46
 -13   8   1   72.67    6.04
  13  -8  -2   30.87    4.22
 -13   8   2   25.49    4.22
  13  -8  -3    5.32    2.91
 -13   8   3    1.82    2.77
  13  -8  -4   22.94    4.22
 -13   8   4   18.20    3.93
  13  -8  -5   64.81    5.90
 -13   8   5   58.83    5.83
  13  -8  -6   51.33    5.83
 -13   8   6   54.76    5.83
  13  -8  -7   12.38    3.86
 -13   8   7   15.29    3.79
  13  -8  -8   27.16    4.81
 -13   8   8   31.16    4.73
 -13   8   9   15.58    3.86
 -13   8  10   74.85    6.92
 -14   8  -8  157.13    8.45
  14  -8   7    2.99    5.24
 -14   8  -7    3.71    2.99
  14  -8   6   32.99    4.73
 -14   8  -6   34.30    4.81
  14  -8   5   84.90    6.26
 -14   8  -5   97.86    6.92
  14  -8   4   29.13    4.30
 -14   8  -4   30.22    4.66
  14  -8   3   19.22    3.79
  14  -8   3   24.03    4.08
 -14   8  -3   26.21    4.37
  14  -8   2   48.28    5.10
  14  -8   2   56.07    5.39
  14  -8   2   45.73    3.06
  14  -8   2   45.80    3.20
 -14   8  -2   48.28    5.75
  14  -8   1    2.55    2.62
  14  -8   1    2.77    2.55
  14  -8   1    2.55    1.24
  14  -8   1    2.48    1.46
 -14   8  -1    1.31    2.99
  14  -8   0   11.43    3.28
 -14   8   0   10.92    3.57
  14  -8  -1    7.43    3.35
 -14   8   1    6.04    3.20
  14  -8  -2   15.58    3.79
 -14   8   2   12.74    3.64
  14  -8  -3   22.72    4.37
 -14   8   3   19.37    4.15
  14  -8  -4   16.97    4.00
 -14   8   4   18.13    4.08
  14  -8  -5    5.46    3.35
 -14   8   5    2.69    3.06
  14  -8  -6   29.05    4.95
 -14   8   6   29.13    4.81
 -14   8   7   46.38    7.14
  15  -8   5   27.67    6.33
  15  -8   4    4.08    2.99
  15  -8   3    7.21    5.39
  15  -8   2   34.08    4.73
  15  -8   2   34.59    2.55
  15  -8   2   33.57    2.69
  15  -8   1   47.91    5.75
  15  -8   0   51.19    5.97
  15  -8  -1   11.94    3.86
  15  -8  -2    7.57    3.50
  15  -8  -3   -0.51    3.50
   6   9  -2   14.85    3.79
   6   9  -1    9.25    3.28
   6   9   0    2.04    2.69
   6   9   3    9.83    3.20
   6   9   4   -0.15    2.69
   6   9   5   10.56    1.97
  -5  -9   8    3.71    3.93
  -5  -9   7   56.58    5.90
  -5  -9   6   22.06    4.37
  -5  -9   5    2.26    2.69
   5   9  -5   -0.07    2.55
  -5  -9   4    2.84    2.84
   5   9  -4    5.75    2.84
  -5  -9   3   40.70    5.17
   5   9  -3   31.60    4.44
  -5  -9   2   11.65    3.64
   5   9  -2   12.09    3.42
  -5  -9   1   18.13    3.93
   5   9  -1   19.22    3.86
  -5  -9   0   41.94    5.24
   5   9   0   42.82    4.66
  -5  -9  -1   54.25    5.61
   5   9   1   52.94    4.95
  -5  -9  -2   33.35    4.81
   5   9   2   34.30    4.44
  -5  -9  -3   17.18    3.86
   5   9   3   14.71    3.28
   5   9   3   10.49    1.53
   5   9   3   13.76    1.60
  -5  -9  -4    9.32    3.28
   5   9   4   13.91    3.28
   5   9   4    7.65    1.67
   5   9   4    9.03    1.60
  -5  -9  -5   14.78    3.71
   5   9   5   13.18    3.35
  -5  -9  -6   20.24    5.17
   5   9   6   19.37    3.86
  -4  -9   9   68.37    6.19
  -4  -9   8    4.59    2.91
   4   9  -8    1.31    3.28
  -4  -9   7   12.67    3.42
   4   9  -7   13.91    3.86
  -4  -9   6   15.66    3.64
   4   9  -6   11.00    3.50
  -4  -9   5    6.55    3.06
   4   9  -5    9.98    3.28
  -4  -9   4   -0.07    2.26
   4   9  -4   -2.77    2.04
  -4  -9   3    1.75    2.33
   4   9  -3    1.53    2.40
  -4  -9   2   18.71    3.71
   4   9  -2   15.07    3.35
  -4  -9   1   13.76    3.42
   4   9  -1   12.23    3.06
  -4  -9   0   52.72    5.24
   4   9   0   45.51    4.66
  -4  -9  -1   38.45    4.95
   4   9   1   30.22    3.86
   4   9   1   34.15    4.08
  -4  -9  -2   12.89    3.28
   4   9   2   11.65    2.91
   4   9   2   12.45    2.91
   4   9   2    9.98    1.38
   4   9   2   10.49    1.31
  -4  -9  -3   29.27    4.44
   4   9   3   22.35    3.57
   4   9   3   21.48    2.26
   4   9   3   20.97    2.11
  -4  -9  -4    5.75    2.77
   4   9   4    6.55    2.55
  -4  -9  -5    2.33    2.48
   4   9   5    3.86    2.48
  -4  -9  -6   34.22    4.59
   4   9   6   28.03    4.37
  -4  -9  -7    5.24    2.77
   4   9   7    3.71    2.69
  -4  -9  -8   22.94    4.00
   4   9   8   21.33    4.15
  -4  -9  -9    9.54    3.13
  -4  -9  -9    6.99    2.69
  -3  -9  10   22.06    4.08
   3   9 -10   15.87    6.55
  -3  -9   9   15.87    3.71
   3   9  -9   15.15    3.71
  -3  -9   8    9.68    3.20
   3   9  -8    9.61    3.35
  -3  -9   7   14.42    3.35
   3   9  -7   14.56    3.50
  -3  -9   6    3.93    2.69
   3   9  -6    2.99    2.55
  -3  -9   5   59.78    5.32
   3   9  -5   54.90    5.24
  -3  -9   4   12.45    3.20
   3   9  -4    9.90    3.06
  -3  -9   3   71.21    5.46
   3   9  -3   72.23    5.39
  -3  -9   2   75.07    5.53
   3   9  -2   74.05    5.24
  -3  -9   1   46.02    4.81
   3   9  -1   41.80    4.30
  -3  -9   0    8.08    2.77
   3   9   0    7.43    2.26
   3   9   0    8.74    2.55
  -3  -9  -1  100.92    6.12
   3   9   1  100.19    5.24
   3   9   1   90.44    5.32
  -3  -9  -2   13.62    3.28
   3   9   2   10.56    2.69
   3   9   2    9.39    2.55
   3   9   2    9.17    1.53
   3   9   2    7.43    1.38
  -3  -9  -3   30.29    4.22
   3   9   3   32.26    3.93
   3   9   3   32.62    3.71
   3   9   3   26.43    2.48
   3   9   3   24.61    2.26
  -3  -9  -4   78.79    5.68
   3   9   4   85.70    5.53
  -3  -9  -5   87.96    5.97
   3   9   5   84.97    5.75
  -3  -9  -6   17.77    3.50
   3   9   6   14.27    3.20
  -3  -9  -7   31.89    4.30
   3   9   7   28.91    4.15
  -3  -9  -8   17.91    3.57
   3   9   8   19.88    3.93
  -3  -9  -9   52.06    5.17
  -3  -9  -9   48.20    2.91
  -3  -9  -9   46.24    2.77
   3   9   9   52.06    5.61
  -3  -9 -10   83.88    5.97
  -2  -9  11   87.09    8.45
   2   9 -11   77.62    6.55
  -2  -9  10  136.45    7.35
   2   9 -10  118.83    7.28
  -2  -9   9   39.76    4.81
   2   9  -9   31.75    4.66
  -2  -9   8   38.45    4.66
   2   9  -8   32.62    4.59
  -2  -9   7   21.33    3.86
   2   9  -7   19.22    3.71
  -2  -9   6   48.20    5.02
   2   9  -6   34.95    4.37
  -2  -9   5   12.52    3.20
   2   9  -5   11.58    2.99
  -2  -9   4   18.86    3.42
   2   9  -4   13.40    3.06
  -2  -9   3   43.91    4.51
   2   9  -3   35.53    4.22
  -2  -9   2    7.21    2.55
   2   9  -2    5.10    2.33
  -2  -9   1   33.64    4.00
   2   9  -1   32.04    3.93
  -2  -9   0   79.88    5.32
   2   9   0   77.98    4.37
   2   9   0   76.09    4.95
  -2  -9  -1  104.93    5.90
   2   9   1   98.15    4.95
   2   9   1   90.00    5.10
   2   9   1   80.75    2.84
   2   9   1   80.46    2.77
  -2  -9  -2   87.01    5.53
   2   9   2   84.39    4.95
   2   9   2   77.55    4.81
   2   9   2   83.45    3.28
   2   9   2   70.12    3.06
  -2  -9  -3   12.74    3.06
   2   9   3   12.01    2.69
   2   9   3   13.18    2.62
  -2  -9  -4  226.53    8.16
   2   9   4  225.87    7.79
   2   9   4  207.89    6.84
  -2  -9  -5   26.80    3.79
   2   9   5   26.72    3.79
  -2  -9  -6    1.75    2.18
   2   9   6    3.28    2.26
  -2  -9  -7   52.50    4.59
   2   9   7   56.65    5.02
  -2  -9  -8    6.19    2.55
  -2  -9  -8    8.45    2.04
  -2  -9  -8    4.88    1.46
   2   9   8    3.93    2.48
  -2  -9  -9   11.72    2.91
  -2  -9  -9   13.18    4.88
  -2  -9  -9   15.15    1.82
  -2  -9  -9   13.33    1.67
   2   9   9   16.46    3.64
  -2  -9 -10  147.89    6.99
  -2  -9 -10  154.37    7.86
   2   9  10  168.20    8.30
  -2  -9 -11   27.23    4.22
   2   9  11   25.27    6.84
  -2  -9 -12    1.60    2.48
   1   9 -13    8.08    4.44
   1   9 -12   -0.95    2.55
  -1  -9  11   78.35    5.83
   1   9 -11   74.64    6.12
  -1  -9  10   76.60    5.68
   1   9 -10   64.59    5.75
  -1  -9   9   21.48    3.71
   1   9  -9   18.64    3.79
  -1  -9   8  177.96    7.57
   1   9  -8  162.23    7.50
  -1  -9   7   35.46    4.44
   1   9  -7   36.48    4.51
  -1  -9   6   23.88    3.64
   1   9  -6   21.77    3.50
  -1  -9   5    6.77    2.55
   1   9  -5    6.77    2.48
  -1  -9   4   12.09    2.84
   1   9  -4    9.83    2.62
  -1  -9   3   24.25    3.57
   1   9  -3   15.29    2.91
  -1  -9   2  148.91    6.48
   1   9  -2  128.01    5.90
  -1  -9   1   79.30    5.10
   1   9  -1   73.98    4.00
   1   9  -1   63.93    4.37
  -1  -9   0  225.36    7.57
   1   9   0  211.24    6.26
   1   9   0  202.21    6.92
   1   9   0  181.45    3.50
   1   9   0  181.96    3.50
  -1  -9  -1   54.03    4.44
   1   9   1   51.63    3.86
   1   9   1   48.64    4.00
   1   9   1   44.34    2.40
   1   9   1   42.01    2.33
  -1  -9  -2   58.40    4.59
   1   9   2   59.34    4.15
   1   9   2   55.05    4.15
   1   9   2   52.21    2.84
  -1  -9  -3   55.78    4.59
  -1  -9  -3   55.92    3.71
   1   9   3   58.03    4.30
   1   9   3   54.17    4.00
  -1  -9  -4  101.50    5.53
  -1  -9  -4  105.65    4.88
   1   9   4  106.60    5.53
   1   9   4   98.74    4.88
  -1  -9  -5   12.96    2.91
  -1  -9  -5    8.52    2.26
   1   9   5    7.72    2.48
   1   9   5    9.98    2.33
  -1  -9  -6   62.55    4.73
  -1  -9  -6   54.10    4.15
   1   9   6   58.25    4.88
  -1  -9  -7   22.86    3.35
  -1  -9  -7   20.39    3.20
   1   9   7   18.13    3.42
  -1  -9  -8   10.49    2.62
  -1  -9  -8    9.68    2.55
  -1  -9  -8   10.12    1.67
  -1  -9  -8   11.50    1.67
   1   9   8   13.33    3.28
  -1  -9  -9    3.06    2.26
  -1  -9  -9    1.09    2.04
  -1  -9  -9    1.31    0.95
  -1  -9  -9    1.31    0.87
   1   9   9    3.06    2.48
  -1  -9 -10   29.71    3.93
   1   9  10   42.16    5.10
  -1  -9 -11   26.21    4.00
   1   9  11   26.87    4.44
  -1  -9 -12   17.69    3.64
   1   9  12   19.44    5.10
  -1  -9 -13   55.19    7.50
   0   9 -14   11.58    4.51
   0   9 -13   12.09    3.50
   0  -9  12    4.22    3.20
   0  -9  12    6.41    2.99
   0   9 -12    7.21    2.91
   0  -9  11   22.79    4.15
   0  -9  11   27.67    4.08
   0   9 -11   24.03    3.93
   0  -9  10   29.85    4.59
   0  -9  10   27.67    4.00
   0   9 -10   22.35    3.79
   0  -9   9   13.69    3.42
   0  -9   9   12.52    3.06
   0   9  -9   12.45    3.06
   0  -9   8   69.61    5.17
   0   9  -8   62.84    5.02
   0  -9   7   28.98    3.86
   0   9  -7   21.04    3.42
   0  -9   6    5.68    2.48
   0   9  -6   10.56    2.69
   0  -9   5    6.04    2.40
   0   9  -5    5.83    2.26
   0  -9   4   84.10    4.08
   0  -9   4   84.03    5.17
   0   9  -4   81.77    4.95
   0  -9   3   39.17    3.20
   0  -9   3   37.50    3.86
   0   9  -3   38.37    3.71
   0  -9   2    3.20    1.97
   0   9  -2    1.02    1.82
   0  -9   1  504.39   10.49
   0   9  -1  498.78    8.52
   0   9  -1  452.40    9.83
   0  -9   0  105.14    5.46
   0   9   0  108.71    4.59
   0   9   0   86.43    4.66
   0   9   0   84.03    2.77
   0   9   0   86.65    2.84
   0  -9  -1  126.19    5.75
   0   9   1  118.98    4.95
   0   9   1  113.66    5.17
   0   9   1  111.19    3.71
   0   9   1  107.77    3.50
   0  -9  -2    7.06    2.33
   0   9   2    4.88    1.97
   0   9   2    7.06    2.04
   0   9   2    8.01    1.67
   0  -9  -3   91.67    5.02
   0   9   3   93.28    4.88
   0   9   3   85.05    4.51
   0  -9  -4  234.97    7.35
   0  -9  -4  226.60    6.70
   0   9   4  240.00    7.43
   0   9   4  223.40    6.70
   0  -9  -5   65.61    4.59
   0  -9  -5   69.47    4.37
   0   9   5   66.12    4.66
   0   9   5   63.71    3.93
   0  -9  -6  308.37    8.30
   0  -9  -6  300.14    8.16
   0   9   6  312.23    8.88
   0   9   6  290.60    7.35
   0  -9  -7   87.45    5.02
   0  -9  -7   88.62    5.10
   0  -9  -7   82.86    3.35
   0  -9  -7   80.53    3.28
   0   9   7   86.80    5.46
   0  -9  -8   21.48    3.13
   0  -9  -8   17.84    3.06
   0  -9  -8   21.77    1.97
   0  -9  -8   19.88    1.82
   0   9   8   22.79    3.64
   0  -9  -9   10.41    2.55
   0  -9  -9   10.63    2.69
   0   9   9   13.47    3.20
   0  -9 -10   25.70    3.86
   0   9  10   27.89    4.15
   0  -9 -11   18.57    3.57
   0   9  11   24.39    4.15
   0  -9 -12    3.64    2.62
   0   9  12    2.55    2.69
   0  -9 -13   15.66    3.64
   1  -9  13    9.32    3.35
   1  -9  13    6.77    2.84
  -1   9 -13    9.47    3.57
  -1   9 -13    8.08    3.06
   1  -9  12   19.08    3.93
   1  -9  12   24.61    3.93
  -1   9 -12   20.39    3.93
  -1   9 -12   20.75    3.71
   1  -9  11    9.25    3.28
   1  -9  11    5.02    2.69
  -1   9 -11    6.19    3.06
  -1   9 -11    5.90    2.62
   1  -9  10   24.39    4.08
   1  -9  10   19.08    3.42
  -1   9 -10   23.45    3.93
  -1   9 -10   23.81    3.79
   1  -9   9   23.37    3.86
   1  -9   9   26.07    3.71
  -1   9  -9   27.09    3.86
  -1   9  -9   24.17    3.64
   1  -9   8   76.60    5.39
   1  -9   8   67.94    4.95
  -1   9  -8   59.27    4.81
   1  -9   7   15.87    3.28
   1  -9   7   14.85    2.91
  -1   9  -7   19.51    3.28
   1  -9   6   73.54    4.00
   1  -9   6   78.20    4.88
   1  -9   6   75.80    4.95
  -1   9  -6   69.76    4.81
   1  -9   5  100.70    4.51
   1  -9   5  107.47    5.53
  -1   9  -5   94.88    5.24
   1  -9   4  249.25    6.48
   1  -9   4  259.80    7.79
  -1   9  -4  228.42    7.28
   1  -9   3  207.38    5.97
   1  -9   3  216.48    7.06
  -1   9  -3  188.37    6.63
   1  -9   2  715.84   10.78
   1  -9   2  731.42   12.23
  -1   9  -2  701.93    9.17
  -1   9  -2  660.79   11.58
   1  -9   1  246.55    6.63
   1  -9   1  253.83    7.43
  -1   9  -1  254.78    6.04
  -1   9  -1  216.77    6.84
  -1   9  -1  192.16    3.57
   1  -9   0  293.44    7.79
  -1   9   0  309.61    6.92
  -1   9   0  283.40    5.02
  -1   9   0  260.39    4.81
   1  -9  -1  162.74    6.04
  -1   9   1  160.78    5.39
  -1   9   1  148.32    4.08
  -1   9   1  128.08    3.79
   1  -9  -2  189.10    6.41
  -1   9   2  183.27    5.97
   1  -9  -3   10.92    2.55
  -1   9   3    8.96    2.26
   1  -9  -4  272.04    7.50
  -1   9   4  274.29    7.65
   1  -9  -5   23.74    3.13
   1  -9  -5   17.04    2.69
  -1   9   5   21.84    3.28
   1  -9  -6    9.03    2.26
   1  -9  -6    7.50    2.26
   1  -9  -6    6.04    1.38
   1  -9  -6    5.97    1.31
  -1   9   6    8.23    2.48
   1  -9  -7   37.79    3.57
   1  -9  -7   36.19    3.71
   1  -9  -7   36.70    2.33
   1  -9  -7   34.59    2.18
  -1   9   7   39.47    4.08
   1  -9  -8    4.88    1.97
   1  -9  -8    2.26    2.04
   1  -9  -8    3.28    1.02
   1  -9  -8    2.11    0.87
  -1   9   8    4.22    2.40
   1  -9  -9    3.13    2.11
  -1   9   9    5.39    2.40
   1  -9 -10   20.17    3.57
  -1   9  10   17.99    3.50
   1  -9 -11    4.81    2.48
  -1   9  11    6.12    2.77
   1  -9 -12    5.68    2.77
  -1   9  12    5.61    2.77
   1  -9 -13   86.14    6.33
  -1   9  13   88.69    6.63
   2  -9  13   16.89    4.08
  -2   9 -13    8.45    3.35
   2  -9  12   58.91    5.61
  -2   9 -12   49.59    5.53
  -2   9 -12   58.18    5.02
   2  -9  11   43.83    5.02
  -2   9 -11   44.13    5.02
  -2   9 -11   43.76    4.44
   2  -9  10   12.82    3.35
  -2   9 -10   11.14    3.06
  -2   9 -10   12.01    2.99
   2  -9   9   28.98    4.15
  -2   9  -9   23.81    3.71
  -2   9  -9   24.10    3.50
   2  -9   8   34.66    3.71
   2  -9   8   38.59    4.51
  -2   9  -8   31.38    4.00
  -2   9  -8   34.95    3.86
   2  -9   7   59.64    3.86
   2  -9   7   63.35    4.81
  -2   9  -7   60.29    4.73
  -2   9  -7   54.47    4.44
   2  -9   6  374.70    7.94
   2  -9   6  396.55    9.47
  -2   9  -6  376.23    9.17
  -2   9  -6  366.19    9.10
   2  -9   5  115.63    4.81
   2  -9   5  116.58    5.46
   2  -9   5  110.17    5.32
  -2   9  -5  105.87    5.32
   2  -9   4  178.32    5.68
   2  -9   4  178.03    6.19
   2  -9   4  171.84    6.33
  -2   9  -4  168.13    6.26
   2  -9   3   13.33    2.33
   2  -9   3   11.50    2.55
  -2   9  -3   12.16    2.55
   2  -9   2  392.69    8.08
   2  -9   2  411.04    9.10
  -2   9  -2  391.02    6.77
  -2   9  -2  324.03    3.86
   2  -9   1  189.46    5.90
   2  -9   1  196.16    6.33
  -2   9  -1  201.55    5.32
  -2   9  -1  184.73    3.79
  -2   9  -1  154.80    3.50
   2  -9   0  223.69    6.41
   2  -9   0  238.91    6.92
  -2   9   0  234.54    5.97
  -2   9   0  217.35    4.59
  -2   9   0  194.27    4.30
   2  -9  -1   85.34    4.30
   2  -9  -1   88.69    4.59
  -2   9   1   95.17    4.30
  -2   9   1   86.87    3.28
  -2   9   1   70.56    2.99
   2  -9  -2   61.16    3.93
  -2   9   2   65.90    3.93
   2  -9  -3  147.67    5.46
  -2   9   3  143.08    5.46
   2  -9  -4  126.33    5.10
  -2   9   4  127.35    5.39
   2  -9  -5   16.16    2.48
   2  -9  -5   20.68    2.11
   2  -9  -5   14.71    1.75
  -2   9   5   20.46    2.99
   2  -9  -6  166.09    5.68
   2  -9  -6  159.03    6.19
   2  -9  -6  161.21    4.15
   2  -9  -6  151.31    3.93
  -2   9   6  170.61    6.55
   2  -9  -7   21.48    2.77
   2  -9  -7   27.67    3.71
   2  -9  -7   25.19    1.82
   2  -9  -7   21.19    1.67
  -2   9   7   21.12    3.35
   2  -9  -8   68.30    4.44
   2  -9  -8   65.97    4.66
  -2   9   8   71.21    4.95
   2  -9  -9   41.80    4.37
  -2   9   9   38.52    4.37
   2  -9 -10   17.48    3.35
  -2   9  10   16.31    3.35
   2  -9 -11   15.95    3.35
  -2   9  11   12.09    3.20
   2  -9 -12   40.70    4.88
  -2   9  12   49.22    5.17
   2  -9 -13    2.04    2.62
  -2   9  13    0.22    2.48
  -2   9  14    8.30    4.22
   3  -9  14   12.67    3.93
  -3   9 -14   14.27    4.00
   3  -9  13   20.53    4.22
  -3   9 -13   17.26    3.86
  -3   9 -12   61.16    5.68
  -3   9 -12   62.26    4.88
  -3   9 -11   14.13    3.35
  -3   9 -11   15.36    3.06
   3  -9  10   32.33    4.37
  -3   9 -10   35.24    4.44
  -3   9 -10   30.66    3.79
   3  -9   9   28.03    3.35
   3  -9   9   28.91    3.93
  -3   9  -9   26.29    3.79
  -3   9  -9   28.83    3.64
   3  -9   8   38.23    3.57
   3  -9   8   39.10    4.22
  -3   9  -8   38.81    4.22
  -3   9  -8   34.30    3.86
   3  -9   7  205.92    6.41
   3  -9   7  220.05    7.43
  -3   9  -7  210.29    7.21
  -3   9  -7  202.28    6.99
   3  -9   6  304.88    7.50
   3  -9   6  321.40    8.45
  -3   9  -6  307.50    8.16
  -3   9  -6  295.70    8.08
   3  -9   5  156.62    5.53
   3  -9   5  165.22    6.04
  -3   9  -5  154.95    5.90
  -3   9  -5  146.36    5.83
   3  -9   4   49.15    3.57
   3  -9   4   50.10    3.71
  -3   9  -4   47.40    3.57
   3  -9   3  143.74    5.24
   3  -9   3  154.37    5.39
  -3   9  -3  145.12    4.73
   3  -9   2    4.73    1.75
   3  -9   2    2.69    1.60
   3  -9   2    3.42    1.75
  -3   9  -2    3.28    1.82
  -3   9  -2    3.79    1.38
  -3   9  -2    3.35    0.87
  -3   9  -2    2.77    0.87
   3  -9   1   59.71    3.79
   3  -9   1   66.12    4.00
  -3   9  -1   60.44    4.00
  -3   9  -1   58.40    3.28
  -3   9  -1   57.96    2.48
  -3   9  -1   54.54    2.33
   3  -9   0  692.91   10.85
   3  -9   0  706.23   11.07
  -3   9   0  668.59   11.07
  -3   9   0  690.58    9.68
  -3   9   0  706.01    8.23
  -3   9   0  604.51    7.65
   3  -9  -1   22.57    2.91
   3  -9  -1   28.18    3.13
  -3   9   1   24.54    2.99
  -3   9   1   21.92    2.77
  -3   9   1   24.90    2.18
  -3   9   1   18.28    1.89
   3  -9  -2   95.24    4.59
   3  -9  -2   94.73    4.44
  -3   9   2   90.14    4.59
  -3   9   2   91.16    4.30
   3  -9  -3   26.43    3.06
   3  -9  -3   29.27    2.99
  -3   9   3   19.59    2.69
  -3   9   3   25.19    2.99
   3  -9  -4   87.23    4.22
   3  -9  -4   80.61    3.20
   3  -9  -4   77.04    3.06
  -3   9   4   77.77    4.37
  -3   9   4   80.46    4.44
   3  -9  -5   48.35    3.42
   3  -9  -5   48.79    2.55
   3  -9  -5   45.44    2.40
  -3   9   5   41.43    3.57
  -3   9   5   50.68    3.86
   3  -9  -6   27.23    2.77
   3  -9  -6   23.74    1.89
   3  -9  -6   22.79    1.75
  -3   9   6   27.01    3.13
  -3   9   6   24.17    3.28
   3  -9  -7   69.17    3.79
   3  -9  -7   74.20    4.81
   3  -9  -7   63.79    2.04
   3  -9  -7   63.35    2.04
  -3   9   7   69.10    4.73
   3  -9  -8   49.00    4.37
  -3   9   8   50.46    4.44
   3  -9  -9   10.05    2.77
  -3   9   9   10.49    2.62
   3  -9 -10   21.19    3.64
  -3   9  10   18.13    3.42
   3  -9 -11   10.85    3.13
  -3   9  11   11.07    3.13
   3  -9 -12   29.85    4.51
  -3   9  12   32.26    4.30
   3  -9 -13   12.45    3.57
  -3   9  13   16.24    3.64
   3  -9 -14   12.09    3.71
  -3   9  14    9.32    3.28
  -4   9 -14   20.97    4.22
  -4   9 -13    5.53    3.13
  -4   9 -12   16.31    3.79
   4  -9  11    2.04    2.04
  -4   9 -11    1.75    2.55
  -4   9 -11   -0.95    1.82
   4  -9  10   11.36    2.69
  -4   9 -10   17.18    3.50
  -4   9 -10   11.58    2.62
   4  -9   9   56.72    4.22
  -4   9  -9   51.19    4.88
  -4   9  -9   55.34    4.37
   4  -9   8  176.28    6.26
  -4   9  -8  182.04    6.92
  -4   9  -8  160.56    6.26
   4  -9   7  239.85    7.06
  -4   9  -7  236.28    7.43
  -4   9  -7  228.71    7.14
   4  -9   6  235.92    6.84
  -4   9  -6  259.44    7.14
  -4   9  -6  250.99    7.35
   4  -9   5   30.95    3.20
   4  -9   5   34.51    3.35
  -4   9  -5   33.71    3.42
  -4   9  -5   32.04    3.28
   4  -9   4   18.20    2.62
   4  -9   4   21.33    2.84
  -4   9  -4   21.26    2.91
  -4   9  -4   19.08    2.62
   4  -9   3   19.51    2.62
   4  -9   3   28.32    2.91
  -4   9  -3   25.78    3.13
  -4   9  -3   26.14    2.26
  -4   9  -3   22.79    2.77
  -4   9  -3   24.32    1.38
  -4   9  -3   20.46    1.31
   4  -9   2   71.29    4.00
   4  -9   2   73.54    3.64
  -4   9  -2   66.41    4.15
  -4   9  -2   67.57    3.20
  -4   9  -2   72.16    3.64
  -4   9  -2   71.07    2.55
  -4   9  -2   56.58    2.26
   4  -9   1  340.63    7.79
   4  -9   1  347.98    6.84
  -4   9  -1  345.29    8.01
  -4   9  -1  342.23    6.70
  -4   9  -1  345.43    5.68
  -4   9  -1  275.39    5.02
   4  -9   0   56.80    3.71
  -4   9   0   57.31    3.86
  -4   9   0   57.16    3.35
  -4   9   0   60.36    2.84
  -4   9   0   49.88    2.48
   4  -9  -1  520.33    9.61
   4  -9  -1  538.39    9.32
  -4   9   1  519.17    9.68
  -4   9   1  525.87    8.88
   4  -9  -2   95.61    4.59
   4  -9  -2  105.29    4.51
  -4   9   2   92.47    4.66
  -4   9   2   96.48    4.37
   4  -9  -3  100.05    4.73
   4  -9  -3  104.49    4.37
   4  -9  -3   98.30    3.50
   4  -9  -3   91.38    3.28
  -4   9   3  102.81    4.81
  -4   9   3   98.23    4.59
   4  -9  -4  236.50    6.99
   4  -9  -4  244.95    6.19
   4  -9  -4  232.57    4.88
   4  -9  -4  219.61    4.73
  -4   9   4  231.04    6.77
  -4   9   4  229.44    6.77
   4  -9  -5  168.20    5.24
   4  -9  -5  169.22    3.93
   4  -9  -5  145.99    3.64
  -4   9   5  150.14    5.68
  -4   9   5  153.42    5.90
   4  -9  -6  213.20    5.68
   4  -9  -6  196.45    3.64
   4  -9  -6  187.06    3.50
  -4   9   6  203.74    6.41
  -4   9   6  210.00    6.92
   4  -9  -7  100.19    5.32
  -4   9   7  102.01    4.88
  -4   9   7  107.84    5.46
   4  -9  -8   38.59    4.08
  -4   9   8   43.18    3.64
  -4   9   8   44.64    4.30
   4  -9  -9    1.75    2.04
  -4   9   9    1.89    1.75
  -4   9   9   -0.15    1.89
   4  -9 -10   24.98    3.93
  -4   9  10   22.28    3.71
   4  -9 -11    1.97    2.33
  -4   9  11    1.53    2.40
   4  -9 -12    2.26    2.69
  -4   9  12    4.51    2.48
   4  -9 -13   10.70    3.35
  -4   9  13   11.43    3.28
   4  -9 -14   28.18    4.59
  -4   9  14   28.25    4.44
  -5   9 -14   10.63    3.71
   5  -9  13   70.63    8.16
  -5   9 -13   68.59    6.19
   5  -9  12    5.39    2.55
  -5   9 -12    4.59    2.84
   5  -9  11   82.50    5.32
  -5   9 -11   87.01    5.97
   5  -9  10   75.95    5.02
  -5   9 -10   71.14    5.32
  -5   9 -10   71.87    4.81
   5  -9   9  150.22    6.26
  -5   9  -9  148.32    6.63
  -5   9  -9  139.95    5.90
   5  -9   8  191.43    6.77
  -5   9  -8  226.09    6.70
  -5   9  -8  201.48    7.21
  -5   9  -8  199.80    6.77
   5  -9   7   97.50    5.02
  -5   9  -7  110.97    5.02
  -5   9  -7  105.65    5.39
   5  -9   6   81.33    4.59
  -5   9  -6   96.84    4.73
  -5   9  -6   89.42    4.81
   5  -9   5   25.19    3.13
  -5   9  -5   24.32    2.99
  -5   9  -5   20.17    2.91
   5  -9   4   68.88    4.08
  -5   9  -4   68.45    4.22
  -5   9  -4   67.57    3.86
   5  -9   3  105.65    4.81
  -5   9  -3  110.90    4.95
  -5   9  -3  114.32    4.51
  -5   9  -3  117.30    2.99
  -5   9  -3  100.48    2.77
   5  -9   2   99.83    4.59
   5  -9   2  106.38    4.15
  -5   9  -2   97.50    4.73
  -5   9  -2  101.58    4.08
  -5   9  -2  103.98    3.20
  -5   9  -2   88.40    2.91
   5  -9   1   67.28    3.93
   5  -9   1   63.35    3.20
  -5   9  -1   56.43    3.93
  -5   9  -1   61.09    3.20
  -5   9  -1   66.70    2.84
  -5   9  -1   53.30    2.55
   5  -9   0  111.77    4.88
   5  -9   0  112.50    3.79
  -5   9   0  109.88    4.88
  -5   9   0  109.59    3.64
  -5   9   0   83.52    4.00
   5  -9  -1  273.13    7.14
  -5   9   1  275.90    7.21
   5  -9  -2  320.89    7.79
   5  -9  -2  331.82    7.14
   5  -9  -2  316.96    6.12
  -5   9   2  317.98    7.72
   5  -9  -3   52.06    3.71
   5  -9  -3   62.11    3.50
   5  -9  -3   52.28    2.62
   5  -9  -3   51.63    2.55
  -5   9   3   56.94    3.93
   5  -9  -4   38.81    3.50
   5  -9  -4   44.56    3.13
   5  -9  -4   40.12    2.33
   5  -9  -4   38.23    2.11
  -5   9   4   44.93    3.71
  -5   9   4   40.70    3.57
   5  -9  -5  395.09    9.03
   5  -9  -5  402.88    7.35
   5  -9  -5  406.89    5.46
   5  -9  -5  365.97    5.17
  -5   9   5  379.95    8.52
  -5   9   5  403.03    9.03
  -5   9   6    1.31    1.60
  -5   9   6    0.73    1.82
  -5   9   7  218.88    6.70
  -5   9   7  216.19    7.28
   5  -9  -8   27.38    3.64
  -5   9   8   27.45    3.20
  -5   9   8   24.90    3.50
   5  -9  -9   12.67    3.06
  -5   9   9   13.33    2.62
  -5   9   9   13.40    2.91
   5  -9 -10   83.45    5.68
  -5   9  10   85.92    5.68
   5  -9 -11   37.50    4.73
  -5   9  11   34.95    4.66
   5  -9 -12    7.06    2.99
  -5   9  12    7.43    2.84
   5  -9 -13    6.26    3.13
  -5   9  13   11.94    3.42
   5  -9 -14    4.00    3.13
  -5   9  14    1.09    2.55
   6  -9  14   62.40    5.83
  -6   9 -14   60.00    6.84
   6  -9  13    8.01    3.06
  -6   9 -13    8.23    3.57
   6  -9  12   29.85    4.15
  -6   9 -12   33.93    4.81
   6  -9  11   19.30    3.50
  -6   9 -11   17.69    3.71
   6  -9  10   16.53    3.13
  -6   9 -10   19.51    3.57
  -6   9 -10   17.69    2.99
   6  -9   9  351.77    9.32
  -6   9  -9  370.55    9.83
  -6   9  -9  357.30    8.66
   6  -9   8  176.72    6.77
  -6   9  -8  194.63    6.33
  -6   9  -8  184.66    6.99
   6  -9   7  192.74    6.77
  -6   9  -7  210.65    6.48
  -6   9  -7  195.51    6.84
   6  -9   6   94.95    5.02
  -6   9  -6  104.42    4.88
  -6   9  -6  100.12    4.88
   6  -9   5   12.38    2.48
  -6   9  -5   11.36    2.40
  -6   9  -5   17.40    2.77
   6  -9   4  162.30    5.97
  -6   9  -4  181.09    6.12
  -6   9  -4  179.20    5.75
  -6   9  -4  187.57    3.50
  -6   9  -4  149.85    3.13
   6  -9   3  124.44    5.24
  -6   9  -3  117.09    5.02
  -6   9  -3  125.39    4.66
  -6   9  -3  130.56    3.50
  -6   9  -3  104.71    3.13
   6  -9   2  154.51    5.68
  -6   9  -2  157.13    5.68
  -6   9  -2  149.78    4.66
  -6   9  -2  158.74    4.15
  -6   9  -2  130.12    3.64
   6  -9   1 1203.05   14.64
  -6   9  -1 1238.43   11.80
  -6   9  -1 1413.55   12.09
  -6   9  -1 1004.26   10.19
   6  -9   0  115.56    5.02
   6  -9   0  119.49    3.79
   6  -9   0  118.54    3.79
  -6   9   0  113.15    5.02
  -6   9   0  117.60    5.46
  -6   9   0  115.34    3.71
   6  -9  -1  286.31    7.43
   6  -9  -1  275.68    5.46
  -6   9   1  292.86    7.50
  -6   9   1  282.59    5.53
   6  -9  -2   20.39    2.91
   6  -9  -2   19.88    2.33
   6  -9  -2   16.89    1.97
   6  -9  -2   16.67    1.89
  -6   9   2   18.79    2.84
  -6   9   2   19.95    2.33
   6  -9  -3  330.22    8.08
   6  -9  -3  313.83    6.70
   6  -9  -3  303.42    5.46
   6  -9  -3  310.99    5.46
  -6   9   3  317.25    7.86
  -6   9   3  313.61    6.63
   6  -9  -4  199.15    6.48
   6  -9  -4  200.02    5.32
   6  -9  -4  191.36    5.75
   6  -9  -4  201.70    4.15
   6  -9  -4  172.35    3.79
  -6   9   4  202.93    6.48
  -6   9   4  194.78    5.68
   6  -9  -5   92.77    4.88
   6  -9  -5  102.96    3.93
   6  -9  -5   90.36    2.40
   6  -9  -5   80.82    2.26
  -6   9   5  102.45    4.95
  -6   9   5  100.70    4.59
  -6   9   6   60.58    4.08
  -6   9   6   61.02    4.00
  -6   9   7    3.57    1.82
  -6   9   7    9.39    2.48
  -6   9   7    7.28    2.33
   6  -9  -8   26.94    3.64
  -6   9   8   28.03    3.42
  -6   9   8   30.07    3.64
  -6   9   8   27.74    3.71
   6  -9  -9   41.07    4.51
  -6   9   9   43.62    3.86
  -6   9   9   47.77    4.66
   6  -9 -10  166.31    7.43
  -6   9  10  167.04    7.50
   6  -9 -11   81.04    5.97
  -6   9  11   78.71    5.83
   6  -9 -12   39.98    5.02
  -6   9  12   44.20    5.02
   6  -9 -13   28.03    4.66
  -6   9  13   20.17    3.86
   6  -9 -14   28.83    5.02
  -6   9  14   25.41    4.22
   7  -9  15   21.55    6.41
   7  -9  14  121.96    7.21
   7  -9  13   44.71    5.24
  -7   9 -13   48.71    5.75
   7  -9  12  147.23    7.28
  -7   9 -12  165.94    8.08
   7  -9  11   89.20    5.97
  -7   9 -11  100.92    6.33
   7  -9  10   99.25    5.97
  -7   9 -10  103.69    6.04
   7  -9   9    2.69    2.18
  -7   9  -9   -0.22    2.04
   7  -9   8   25.41    3.50
  -7   9  -8   28.18    3.35
  -7   9  -8   24.90    3.57
   7  -9   7   45.15    4.15
  -7   9  -7   47.77    3.79
  -7   9  -7   45.73    4.00
   7  -9   6   45.29    4.08
  -7   9  -6   45.22    3.71
  -7   9  -6   49.15    3.86
   7  -9   5   38.66    3.86
  -7   9  -5   43.11    3.79
  -7   9  -5   37.57    3.50
  -7   9  -5   42.31    1.82
   7  -9   4  507.59   10.19
  -7   9  -4  550.92   10.27
  -7   9  -4  523.32    9.25
  -7   9  -4  562.13    6.70
  -7   9  -4  462.96    6.12
   7  -9   3  107.47    5.17
  -7   9  -3  113.30    5.17
  -7   9  -3  113.66    4.51
  -7   9  -3  110.75    3.50
  -7   9  -3   90.22    3.13
   7  -9   2  159.76    5.97
  -7   9  -2  169.66    6.04
  -7   9  -2  168.20    4.95
  -7   9  -2  162.23    4.37
  -7   9  -2  132.45    3.86
   7  -9   1  308.59    7.86
  -7   9  -1  324.61    8.01
  -7   9  -1  320.97    6.12
   7  -9   0   39.25    3.57
   7  -9   0   41.36    2.69
  -7   9   0   40.34    3.64
  -7   9   0   35.90    2.62
   7  -9  -1  170.53    5.97
   7  -9  -1  179.20    4.88
   7  -9  -1  181.24    5.53
  -7   9   1  173.66    6.12
   7  -9  -2    9.83    2.33
   7  -9  -2    9.98    1.97
   7  -9  -2    8.08    1.53
   7  -9  -2    8.81    1.60
  -7   9   2    8.66    2.26
   7  -9  -3  260.46    7.28
   7  -9  -3  268.98    6.48
   7  -9  -3  251.07    4.81
   7  -9  -3  248.95    4.73
  -7   9   3  262.79    7.43
  -7   9   3  257.76    6.26
   7  -9  -4   93.28    4.95
   7  -9  -4   92.62    4.44
   7  -9  -4   91.46    2.69
   7  -9  -4   83.37    2.55
  -7   9   4   97.35    4.95
  -7   9   4   92.18    4.30
   7  -9  -5  108.57    5.17
   7  -9  -5  107.18    4.95
  -7   9   5  106.53    5.17
  -7   9   5  106.89    4.81
   7  -9  -6   28.03    3.50
   7  -9  -6   28.76    3.42
  -7   9   6   27.31    3.35
  -7   9   6   27.96    3.42
   7  -9  -7   74.20    4.73
  -7   9   7   77.04    4.66
  -7   9   7   75.14    4.66
   7  -9  -8  308.73    9.03
   7  -9  -8  316.96    8.81
  -7   9   8  331.09    8.45
  -7   9   8  328.54    8.88
   7  -9  -9   37.50    4.51
  -7   9   9   40.41    3.86
  -7   9   9   38.30    4.59
  -7   9   9   30.87    4.08
   7  -9 -10  375.58   10.49
  -7   9  10  387.30   10.41
  -7   9  10  381.62   10.63
   7  -9 -11   64.37    5.75
  -7   9  11   67.79    5.46
  -7   9  11   69.17    5.68
   7  -9 -12   26.72    4.51
  -7   9  12   34.15    4.73
   7  -9 -13   44.71    5.53
  -7   9  13   42.96    5.24
   7  -9 -14  103.69    8.16
  -7   9  14  120.87    7.43
   8  -9  14    9.39    3.35
   8  -9  13   43.83    5.24
  -8   9 -13   47.62    5.61
   8  -9  12   23.96    4.08
  -8   9 -12   28.03    4.44
   8  -9  11   63.57    5.46
  -8   9 -11   68.15    5.75
   8  -9  10   27.74    4.00
  -8   9 -10   33.28    4.44
   8  -9   9   41.87    4.59
  -8   9  -9   47.91    4.51
   8  -9   8   70.99    5.17
  -8   9  -8   82.06    4.59
  -8   9  -8   73.91    4.95
   8  -9   7   22.65    3.42
  -8   9  -7   20.53    2.99
  -8   9  -7   22.21    3.28
   8  -9   6   99.54    5.39
  -8   9  -6  112.21    5.32
  -8   9  -6  102.89    5.02
   8  -9   5  145.27    6.19
  -8   9  -5  163.61    6.12
  -8   9  -5  153.42    5.68
  -8   9  -5  155.97    3.64
  -8   9  -5  133.98    3.35
   8  -9   4  259.66    7.79
  -8   9  -4  285.94    7.79
  -8   9  -4  270.94    6.92
  -8   9  -4  288.35    5.39
  -8   9  -4  243.27    4.95
   8  -9   3  179.78    6.55
  -8   9  -3  202.13    6.70
  -8   9  -3  192.52    5.61
  -8   9  -3  195.43    4.81
  -8   9  -3  156.77    4.22
   8  -9   2  350.02    8.66
  -8   9  -2  357.96    8.59
  -8   9  -2  348.13    6.92
   8  -9   1  279.90    7.72
  -8   9  -1  298.90    8.01
  -8   9  -1  289.44    5.97
   8  -9   0    6.70    2.18
   8  -9   0    3.35    1.53
  -8   9   0    4.95    2.11
   8  -9  -1  171.41    6.19
   8  -9  -1  176.72    5.17
   8  -9  -1  163.47    4.44
   8  -9  -1  162.45    4.44
  -8   9   1  165.73    6.19
   8  -9  -2  747.30   12.09
   8  -9  -2  756.91   10.49
   8  -9  -2  698.59    8.23
   8  -9  -2  697.57    8.23
  -8   9   2  716.28   12.09
   8  -9  -3   66.99    4.37
   8  -9  -3   70.92    4.00
   8  -9  -3   64.51    2.62
   8  -9  -3   63.35    2.55
  -8   9   3   72.81    4.59
   8  -9  -4   20.97    3.06
   8  -9  -4   20.90    2.91
  -8   9   4   23.16    3.28
   8  -9  -5   83.30    4.81
   8  -9  -5   79.08    4.66
  -8   9   5   77.33    4.81
   8  -9  -6   97.50    5.10
   8  -9  -6   97.57    5.17
  -8   9   6   87.45    5.02
  -8   9   6   91.46    4.88
   8  -9  -7   13.91    2.99
  -8   9   7    9.32    2.48
  -8   9   7   10.56    2.77
   8  -9  -8   51.77    4.81
   8  -9  -8   54.32    4.95
  -8   9   8   55.27    4.44
  -8   9   8   52.79    4.59
   8  -9  -9   44.27    4.59
   8  -9  -9   47.48    4.88
  -8   9   9   42.38    4.22
  -8   9   9   38.88    4.37
   8  -9 -10   13.83    3.42
   8  -9 -10   14.49    3.50
  -8   9  10   12.67    3.42
  -8   9  10   13.83    3.50
   8  -9 -11   11.29    3.42
   8  -9 -11   18.13    3.79
  -8   9  11   13.03    3.42
  -8   9  11   13.11    3.42
   8  -9 -12    8.96    3.28
  -8   9  12   12.16    3.50
  -8   9  12   10.12    3.20
   8  -9 -13   43.54    5.39
  -8   9  13   54.90    5.68
  -8   9  13   46.38    5.61
   9  -9  13   15.07    3.79
  -9   9 -13   19.95    6.70
   9  -9  12    2.48    2.62
  -9   9 -12    2.48    2.62
   9  -9  11   20.53    3.79
  -9   9 -11   24.61    4.22
   9  -9  10   21.70    3.86
  -9   9 -10   24.83    4.00
   9  -9   9    8.52    2.77
  -9   9  -9    7.79    2.69
   9  -9   8   24.39    3.79
  -9   9  -8   22.79    3.20
  -9   9  -8   20.32    3.42
   9  -9   7   84.54    5.39
  -9   9  -7   94.66    5.10
  -9   9  -7   86.87    5.10
   9  -9   6  300.73    8.81
  -9   9  -6  329.78    8.52
  -9   9  -6  302.18    8.16
  -9   9  -6  298.25    4.51
  -9   9  -6  318.56    4.73
   9  -9   5   74.13    5.02
  -9   9  -5   71.94    4.81
  -9   9  -5   76.46    4.51
  -9   9  -5   75.36    3.06
  -9   9  -5   66.84    2.84
   9  -9   4  238.25    7.72
  -9   9  -4  256.24    7.72
  -9   9  -4  228.93    6.63
  -9   9  -4  248.95    5.46
  -9   9  -4  215.68    5.02
   9  -9   3   91.67    5.17
  -9   9  -3   97.57    5.32
  -9   9  -3   88.40    4.30
   9  -9   2    2.55    1.97
  -9   9  -2    3.28    2.11
  -9   9  -2    3.13    1.60
   9  -9   1  122.33    5.61
   9  -9   1  121.96    5.46
  -9   9  -1  120.29    5.75
   9  -9   0  103.54    5.24
   9  -9   0  106.96    4.37
  -9   9   0  108.35    5.61
   9  -9  -1  507.01   10.27
   9  -9  -1  517.93    8.96
   9  -9  -1  480.07    7.28
   9  -9  -1  477.74    7.21
  -9   9   1  499.58   10.56
   9  -9  -2    3.13    2.04
   9  -9  -2    2.99    1.89
   9  -9  -2    4.73    1.24
   9  -9  -2    2.62    1.17
  -9   9   2    1.53    2.04
   9  -9  -3   34.51    3.64
   9  -9  -3   37.72    3.64
   9  -9  -3   34.37    1.89
   9  -9  -3   35.32    1.89
  -9   9   3   40.63    4.15
   9  -9  -4   79.30    4.73
   9  -9  -4   83.30    4.73
  -9   9   4   86.50    5.17
   9  -9  -5    4.95    2.18
   9  -9  -5    5.24    2.26
  -9   9   5    2.77    2.18
   9  -9  -6    7.79    2.40
   9  -9  -6    9.76    2.55
  -9   9   6    8.59    2.55
   9  -9  -7   21.70    3.13
   9  -9  -7   25.63    3.71
  -9   9   7   25.78    3.50
   9  -9  -8   70.56    5.17
   9  -9  -8   75.73    5.53
  -9   9   8   70.48    4.95
  -9   9   8   65.31    4.95
   9  -9  -9   14.56    3.28
   9  -9  -9   20.90    3.79
  -9   9   9   18.42    3.20
  -9   9   9   13.62    3.35
   9  -9 -10   24.90    3.93
   9  -9 -10   23.30    4.15
  -9   9  10   27.82    3.86
  -9   9  10   20.10    3.86
   9  -9 -11   31.67    4.66
   9  -9 -11   31.75    4.66
  -9   9  11   30.44    4.51
   9  -9 -12    5.61    2.91
   9  -9 -12    3.28    2.99
  -9   9  12    3.28    2.99
  -9   9  12    4.30    2.77
   9  -9 -13   13.33    3.86
  -9   9  13   11.50    3.42
  10  -9  12    5.75    3.13
 -10   9 -12    6.99    3.20
  10  -9  11   14.20    3.57
 -10   9 -11   13.91    3.57
  10  -9  10   10.56    3.20
 -10   9 -10   10.85    3.20
  10  -9   9   23.45    3.86
 -10   9  -9   26.36    4.00
  10  -9   8   19.73    3.57
 -10   9  -8   21.04    4.15
 -10   9  -8   21.33    3.57
  10  -9   7   46.02    4.73
 -10   9  -7   52.21    4.44
 -10   9  -7   53.23    4.59
  10  -9   6   20.10    3.42
 -10   9  -6   26.72    3.57
 -10   9  -6   26.21    3.57
 -10   9  -6   21.19    1.97
 -10   9  -6   23.16    2.11
  10  -9   5   85.05    5.46
 -10   9  -5   90.00    5.32
 -10   9  -5   84.54    4.81
 -10   9  -5   93.35    3.64
 -10   9  -5   74.71    3.20
  10  -9   4  100.41    5.68
 -10   9  -4  110.39    5.83
 -10   9  -4   93.13    4.73
  10  -9   3  124.80    6.12
 -10   9  -3  137.98    6.33
 -10   9  -3  127.50    5.02
  10  -9   2  168.64    6.70
 -10   9  -2  191.50    7.21
  10  -9   1   70.48    4.81
  10  -9   1   67.21    4.00
 -10   9  -1   74.27    5.17
  10  -9   0    7.28    2.40
  10  -9   0    7.50    2.11
 -10   9   0    8.74    2.62
  10  -9  -1    4.30    2.18
  10  -9  -1    6.99    2.18
  10  -9  -1    4.66    1.38
  10  -9  -1    5.39    1.38
 -10   9   1    3.71    2.33
  10  -9  -2  148.69    6.12
  10  -9  -2  146.65    5.83
  10  -9  -2  147.89    3.71
  10  -9  -2  133.69    3.50
 -10   9   2  147.67    6.55
  10  -9  -3    1.24    1.97
  10  -9  -3    0.58    1.89
 -10   9   3    4.66    2.40
  10  -9  -4   11.21    2.62
  10  -9  -4   10.34    2.62
 -10   9   4   10.78    2.84
  10  -9  -5   41.43    4.00
  10  -9  -5   40.78    4.30
 -10   9   5   37.72    4.22
  10  -9  -6    1.97    2.04
  10  -9  -6    3.28    2.55
 -10   9   6    1.46    2.26
  10  -9  -7    6.19    2.33
  10  -9  -7    8.88    2.84
 -10   9   7    6.19    2.62
  10  -9  -8   13.98    3.20
  10  -9  -8   19.66    3.71
 -10   9   8   20.68    3.42
  10  -9  -9   16.67    3.50
  10  -9  -9   20.46    3.93
 -10   9   9   15.44    3.28
  10  -9 -10    9.54    3.20
  10  -9 -10   11.87    3.57
 -10   9  10    9.47    2.91
 -10   9  10    6.70    3.13
  10  -9 -11   11.07    3.35
  10  -9 -11   16.09    4.00
 -10   9  11   14.49    3.79
  10  -9 -12   10.05    3.42
  10  -9 -12    6.26    3.50
 -10   9  12    6.99    3.42
  10  -9 -13   11.50    3.50
  11  -9  11    4.30    3.79
 -11   9 -11    6.33    3.13
  11  -9  10   11.00    3.28
 -11   9 -10   13.40    3.50
  11  -9   9    3.57    2.55
 -11   9  -9    6.63    2.84
  11  -9   8   34.59    4.59
 -11   9  -8   40.27    4.51
  11  -9   7   39.61    4.73
 -11   9  -7   39.83    4.51
 -11   9  -7   41.80    4.44
 -11   9  -7   37.86    2.11
 -11   9  -7   43.54    2.33
  11  -9   6   36.12    4.51
 -11   9  -6   46.67    4.66
 -11   9  -6   38.15    4.15
 -11   9  -6   36.55    2.55
 -11   9  -6   41.21    2.69
  11  -9   5   54.25    5.02
 -11   9  -5   65.61    5.10
 -11   9  -5   59.49    4.37
  11  -9   4   27.52    3.86
 -11   9  -4   34.44    4.22
 -11   9  -4   29.20    3.50
  11  -9   3   46.67    4.59
 -11   9  -3   50.97    4.81
  11  -9   2   53.74    4.66
 -11   9  -2   64.37    5.17
  11  -9   1  216.70    7.57
  11  -9   1  202.64    6.48
 -11   9  -1  205.70    7.86
  11  -9   0  260.09    8.16
  11  -9   0  258.27    7.43
  11  -9   0  238.25    5.53
  11  -9   0  242.76    5.53
 -11   9   0  273.49    8.81
  11  -9  -1  149.93    6.41
  11  -9  -1  154.08    6.19
  11  -9  -1  144.61    4.00
  11  -9  -1  146.94    4.00
 -11   9   1  159.76    7.06
  11  -9  -2   17.99    3.13
  11  -9  -2   18.06    3.06
  11  -9  -2   21.12    1.67
  11  -9  -2   16.24    1.60
 -11   9   2   16.89    3.28
  11  -9  -3   23.37    3.42
  11  -9  -3   23.37    3.50
 -11   9   3   23.81    3.71
  11  -9  -4   53.81    4.30
  11  -9  -4   53.45    4.66
 -11   9   4   43.69    4.73
  11  -9  -5   23.96    3.57
  11  -9  -5   18.35    3.42
 -11   9   5   19.08    3.42
  11  -9  -6   25.85    3.50
  11  -9  -6   29.27    4.08
 -11   9   6   27.38    3.86
  11  -9  -7   29.93    3.93
  11  -9  -7   36.33    4.59
 -11   9   7   38.88    4.66
  11  -9  -8   21.70    3.64
  11  -9  -8   23.23    3.93
 -11   9   8   28.03    4.00
  11  -9  -9    5.61    2.69
  11  -9  -9    6.04    3.13
 -11   9   9    9.17    3.06
  11  -9 -10   47.04    5.46
  11  -9 -10   51.04    5.97
 -11   9  10   46.31    4.95
  11  -9 -11    7.50    3.57
 -11   9  11    6.77    3.50
 -12   9 -10    8.37    3.42
  12  -9   9   38.01    5.10
 -12   9  -9   44.56    5.17
  12  -9   8    5.61    2.91
 -12   9  -8    4.44    2.69
  12  -9   7    7.65    2.99
 -12   9  -7    7.21    2.84
 -12   9  -7    5.17    2.55
 -12   9  -7    5.75    1.38
 -12   9  -7    6.41    1.53
  12  -9   6   15.73    3.50
 -12   9  -6   16.97    3.35
 -12   9  -6   20.75    3.50
 -12   9  -6   16.82    2.55
  12  -9   5   28.40    4.15
 -12   9  -5   28.98    4.15
 -12   9  -5   28.32    4.37
  12  -9   4   13.47    3.20
 -12   9  -4   10.49    3.06
  12  -9   3   30.95    4.08
 -12   9  -3   42.82    4.95
  12  -9   2  127.28    6.48
 -12   9  -2  136.38    6.99
  12  -9   1  133.11    6.55
  12  -9   1  124.73    5.83
 -12   9  -1  145.12    7.14
  12  -9   0   95.53    5.75
  12  -9   0   91.38    5.39
  12  -9   0   86.29    3.50
  12  -9   0   91.09    3.64
 -12   9   0   95.46    6.19
  12  -9  -1   10.27    2.84
  12  -9  -1    9.10    2.84
  12  -9  -1    9.61    1.46
  12  -9  -1   10.70    1.60
 -12   9   1   10.56    3.20
  12  -9  -2   37.79    4.15
  12  -9  -2   37.35    4.44
 -12   9   2   35.53    4.44
  12  -9  -3   50.39    4.44
  12  -9  -3   50.97    4.95
 -12   9   3   48.86    5.10
  12  -9  -4   31.67    3.93
  12  -9  -4   33.20    4.30
 -12   9   4   35.39    4.51
  12  -9  -5    4.44    2.84
 -12   9   5    5.90    2.91
  12  -9  -6   73.69    5.75
 -12   9   6   72.31    5.90
  12  -9  -7    1.75    2.77
 -12   9   7    1.53    2.55
  12  -9  -8   12.16    3.71
 -12   9   8   13.91    3.57
  12  -9  -9    3.93    3.20
 -12   9   9    3.57    2.84
  12  -9 -10    1.97    4.37
 -12   9  10    1.97    3.06
 -13   9  -9    3.28    2.99
  13  -9   8    8.37    3.28
 -13   9  -8    8.45    3.20
  13  -9   7    7.94    3.20
 -13   9  -7    8.01    3.06
 -13   9  -7    9.76    3.13
 -13   9  -7    7.72    1.60
 -13   9  -7    8.08    1.67
  13  -9   6    5.75    2.91
 -13   9  -6   10.19    3.13
  13  -9   5   13.25    3.50
 -13   9  -5   16.67    3.57
  13  -9   4   86.43    6.12
 -13   9  -4   87.89    6.33
  13  -9   3  118.40    6.70
 -13   9  -3  139.73    7.35
  13  -9   2    8.37    2.99
 -13   9  -2    7.86    3.13
  13  -9   1   44.64    4.73
  13  -9   1   40.27    4.59
  13  -9   1   36.33    2.84
  13  -9   1   38.01    2.99
 -13   9  -1   46.97    5.46
  13  -9   0   59.64    5.02
  13  -9   0   59.56    5.10
  13  -9   0   55.34    2.77
  13  -9   0   58.76    2.91
 -13   9   0   65.75    5.97
  13  -9  -1   46.67    4.59
  13  -9  -1   52.57    5.10
 -13   9   1   51.84    5.53
  13  -9  -2   23.08    3.57
  13  -9  -2   24.39    4.00
 -13   9   2   24.90    4.30
  13  -9  -3   22.86    3.86
 -13   9   3   20.90    4.00
  13  -9  -4    9.61    3.28
 -13   9   4    9.25    3.35
  13  -9  -5   28.32    4.44
 -13   9   5   22.43    4.15
  13  -9  -6   52.57    5.68
 -13   9   6   52.79    5.83
  13  -9  -7   16.24    3.93
 -13   9   7   16.09    3.93
  13  -9  -8    9.10    3.57
 -13   9   8    3.86    3.20
 -13   9   9   15.58    3.86
 -13   9  10   36.48    7.57
  14  -9   6   28.40    4.59
 -14   9  -6   34.15    4.73
  14  -9   5    8.59    3.28
 -14   9  -5   14.93    3.79
  14  -9   4   76.67    6.12
 -14   9  -4   81.55    6.48
  14  -9   3   -0.80    2.48
 -14   9  -3    2.69    2.91
  14  -9   2   44.93    5.02
 -14   9  -2   47.18    5.83
  14  -9   1   43.32    4.95
  14  -9   1   47.62    6.33
  14  -9   1   42.01    2.69
  14  -9   1   40.41    2.91
 -14   9  -1   50.24    5.97
  14  -9   0    0.51    2.55
  14  -9   0    1.17    2.69
 -14   9   0   -1.38    2.77
  14  -9  -1   13.40    3.50
 -14   9   1    9.83    3.50
  14  -9  -2   -1.24    2.69
 -14   9   2   -0.87    2.77
  14  -9  -3    3.35    2.91
 -14   9   3    1.67    2.84
  14  -9  -4   76.38    6.48
 -14   9   4   75.87    6.70
  14  -9  -5   15.95    4.08
 -14   9   5   15.36    3.93
  14  -9  -6   55.85    6.48
 -14   9   6   57.31    6.77
  15  -9   4   75.58    6.63
  15  -9   3   33.20    4.73
  15  -9   2   38.45    2.77
  15  -9   2   33.06    2.84
  15  -9   0    9.90    3.57
  15  -9  -1    8.45    3.57
  15  -9  -2    6.48    3.50
  15  -9  -3   22.94    4.51
   5  10  -1   45.36    5.24
   5  10   0   36.33    4.81
   5  10   3   12.09    4.00
  -4 -10   6   -2.62    3.35
  -4 -10   5   25.56    4.66
  -4 -10   4   65.82    6.33
   4  10  -4   55.41    5.83
  -4 -10   3    4.15    3.06
   4  10  -3    4.37    2.99
  -4 -10   2    7.72    3.20
   4  10  -2    5.97    2.91
  -4 -10   1   28.76    4.59
   4  10  -1   32.48    4.51
  -4 -10   0   51.84    5.75
   4  10   0   43.25    4.95
  -4 -10  -1    7.57    3.28
   4  10   1    6.63    2.69
  -4 -10  -2   24.90    4.37
   4  10   2   21.77    4.66
  -4 -10  -3    3.20    2.84
   4  10   3    6.77    2.77
   4  10   3    3.71    1.24
   4  10   3    4.15    1.09
  -4 -10  -4    1.89    2.69
   4  10   4    2.62    2.40
   4  10   4    0.95    1.31
   4  10   4    1.31    1.17
  -4 -10  -5   38.74    6.70
   4  10   5   54.03    5.39
   4  10   6    1.38    3.13
  -3 -10   9   54.61    6.70
  -3 -10   8   54.47    5.90
  -3 -10   7    8.01    3.28
   3  10  -7    7.21    3.57
  -3 -10   6   85.78    6.48
   3  10  -6   75.65    6.33
  -3 -10   5    3.13    2.77
   3  10  -5    1.24    2.62
  -3 -10   4   33.13    4.66
   3  10  -4   27.31    4.37
  -3 -10   3   25.05    4.22
   3  10  -3   22.50    4.00
  -3 -10   2   19.88    4.00
   3  10  -2   18.86    3.71
  -3 -10   1   -0.15    2.40
   3  10  -1   -2.11    2.04
  -3 -10   0    9.68    3.28
   3  10   0    9.25    2.91
  -3 -10  -1   64.73    5.75
   3  10   1   59.42    5.02
  -3 -10  -2   16.09    3.79
   3  10   2   13.54    3.06
   3  10   2   12.74    3.06
   3  10   2   11.94    1.53
   3  10   2    9.83    1.31
  -3 -10  -3   12.96    3.50
   3  10   3   15.66    3.28
   3  10   3   11.65    3.06
   3  10   3   11.65    1.82
   3  10   3   10.56    1.67
  -3 -10  -4   27.89    4.44
   3  10   4   21.99    3.71
  -3 -10  -5    3.93    2.69
   3  10   5    1.09    2.33
  -3 -10  -6    4.88    2.55
   3  10   6    4.30    2.77
  -3 -10  -7   55.27    5.46
   3  10   7   57.09    5.75
  -3 -10  -8   21.48    4.00
  -3 -10  -9    2.48    1.46
  -3 -10  -9    2.04    1.31
  -2 -10  10   11.43    3.86
  -2 -10   9   37.06    5.10
   2  10  -9   34.15    5.46
  -2 -10   8   19.44    4.00
   2  10  -8   15.95    3.79
  -2 -10   7    6.33    3.20
   2  10  -7    4.95    2.91
  -2 -10   6    7.35    3.06
   2  10  -6    6.41    3.06
  -2 -10   5   26.14    4.30
   2  10  -5   23.59    4.15
  -2 -10   4   25.19    4.08
   2  10  -4   26.07    4.15
  -2 -10   3   10.56    3.06
   2  10  -3    9.54    2.91
  -2 -10   2    4.15    2.62
   2  10  -2    4.22    2.55
  -2 -10   1   35.24    4.44
   2  10  -1   32.55    4.30
  -2 -10   0   16.82    3.57
   2  10   0   15.80    3.28
  -2 -10  -1  164.78    7.57
   2  10   1  156.77    6.41
   2  10   1  153.71    6.77
   2  10   1  130.85    3.13
   2  10   1  125.97    3.06
  -2 -10  -2   25.99    4.00
   2  10   2   30.44    3.86
   2  10   2   28.18    3.79
   2  10   2   23.16    2.04
   2  10   2   24.98    2.11
  -2 -10  -3   32.69    4.59
   2  10   3   28.40    3.86
   2  10   3   30.73    3.93
  -2 -10  -4   64.95    5.46
   2  10   4   51.55    4.81
   2  10   4   59.27    5.02
  -2 -10  -5   26.14    4.00
   2  10   5   21.77    3.57
  -2 -10  -6    4.30    2.62
   2  10   6    5.83    2.77
  -2 -10  -7    3.06    2.26
   2  10   7    0.51    2.33
  -2 -10  -8   40.70    4.81
   2  10   8   42.01    5.24
  -2 -10  -9   24.68    4.00
  -2 -10  -9   24.68    2.33
  -2 -10  -9   24.25    2.18
   2  10   9   23.88    4.30
  -1 -10  11   33.86    4.73
  -1 -10  10   21.99    4.08
   1  10 -10   24.98    4.59
  -1 -10   9   12.09    3.50
   1  10  -9    4.66    2.91
  -1 -10   8   57.60    5.68
   1  10  -8   36.92    4.81
  -1 -10   7   20.75    3.86
   1  10  -7   15.36    3.57
  -1 -10   6   30.80    4.30
   1  10  -6   26.65    4.08
  -1 -10   5   12.16    3.35
   1  10  -5    9.61    2.99
  -1 -10   4   77.47    5.75
   1  10  -4   57.16    5.17
  -1 -10   3    7.43    2.91
   1  10  -3    8.96    2.77
  -1 -10   2    3.35    2.40
   1  10  -2    8.30    2.77
  -1 -10   1    9.10    2.91
   1  10  -1    7.50    2.55
  -1 -10   0  116.21    6.26
   1  10   0  109.37    5.83
  -1 -10  -1   23.30    3.79
   1  10   1   22.86    3.20
   1  10   1   19.08    3.20
   1  10   1   18.35    1.82
   1  10   1   17.84    1.75
  -1 -10  -2   29.34    4.08
   1  10   2   26.58    3.50
   1  10   2   26.87    3.57
   1  10   2   23.45    2.18
   1  10   2   24.39    2.26
  -1 -10  -3   36.84    4.44
   1  10   3   34.30    4.00
   1  10   3   31.09    3.64
  -1 -10  -4   54.32    4.95
   1  10   4   55.27    4.66
   1  10   4   49.37    4.08
  -1 -10  -5   16.60    3.35
   1  10   5   18.28    3.35
   1  10   5   13.18    4.08
  -1 -10  -6   40.99    4.66
  -1 -10  -6   40.56    4.30
   1  10   6   39.47    4.51
  -1 -10  -7   43.47    4.59
  -1 -10  -7   40.78    4.15
   1  10   7   39.90    4.59
  -1 -10  -8   33.93    4.30
  -1 -10  -8   34.37    4.22
  -1 -10  -8   38.74    2.77
  -1 -10  -8   28.32    2.40
   1  10   8   28.62    4.15
  -1 -10  -9    8.16    2.69
  -1 -10  -9   10.05    2.91
  -1 -10  -9    6.70    1.31
  -1 -10  -9    7.14    1.31
   1  10   9    5.53    2.84
  -1 -10 -10   24.76    4.00
   1  10  10   28.54    4.59
  -1 -10 -11   17.04    3.64
   0 -10  12    1.09    2.91
   0  10 -12    2.26    3.06
   0 -10  11    8.81    3.35
   0  10 -11    6.12    3.06
   0 -10  10   55.56    5.53
   0  10 -10   38.88    4.88
   0 -10   9    3.79    2.77
   0  10  -9    3.79    2.69
   0 -10   8  141.48    7.28
   0  10  -8  136.67    7.21
   0 -10   7    5.90    2.69
   0  10  -7    5.75    2.69
   0 -10   6   27.60    4.15
   0  10  -6   21.26    3.71
   0 -10   5   35.46    4.37
   0  10  -5   30.73    4.08
   0 -10   4    7.79    2.84
   0  10  -4    6.19    2.55
   0 -10   3   22.94    3.64
   0  10  -3   17.33    3.20
   0 -10   2   41.58    4.44
   0  10  -2   35.02    3.93
   0 -10   1  119.20    6.19
   0  10  -1  106.82    5.75
   0 -10   0   41.07    4.44
   0  10   0   35.68    3.42
   0  10   0   31.67    3.86
   0  10   0   27.31    1.75
   0  10   0   25.49    1.75
   0 -10  -1   27.89    3.79
   0  10   1   24.90    3.20
   0  10   1   24.25    3.42
   0  10   1   20.02    1.89
   0 -10  -2   34.37    4.08
   0  10   2   36.92    3.79
   0  10   2   30.44    3.64
   0  10   2   30.44    2.69
   0 -10  -3   74.49    5.17
   0  10   3   77.47    4.95
   0  10   3   71.14    4.59
   0 -10  -4    5.02    2.40
   0 -10  -4    8.08    2.26
   0  10   4    7.35    2.55
   0  10   4    7.06    2.26
   0 -10  -5   32.62    4.00
   0 -10  -5   31.67    3.64
   0  10   5   33.35    4.08
   0  10   5   28.98    3.42
   0 -10  -6   25.85    3.64
   0 -10  -6   23.37    3.28
   0  10   6   25.49    3.86
   0 -10  -7   28.11    3.79
   0 -10  -7   31.24    3.86
   0  10   7   30.95    4.30
   0 -10  -8   11.21    2.77
   0 -10  -8   13.54    3.06
   0 -10  -8   11.21    1.75
   0 -10  -8   11.14    1.60
   0  10   8   13.11    3.20
   0 -10  -9   35.10    4.37
   0  10   9   35.75    4.73
   0 -10 -10    2.26    2.33
   0  10  10    3.86    2.84
   0 -10 -11   12.38    3.13
   0  10  11   16.53    3.79
   0 -10 -12   14.34    3.57
   1 -10  13    7.86    3.35
  -1  10 -13    4.51    3.20
   1 -10  12    3.06    3.64
   1 -10  12    3.50    2.84
  -1  10 -12    3.28    2.77
   1 -10  11   12.45    3.86
   1 -10  11   15.36    3.57
  -1  10 -11   13.69    3.50
   1 -10  10    6.63    3.13
   1 -10  10    8.37    3.13
  -1  10 -10    5.97    2.91
   1 -10   9   17.04    3.71
   1 -10   9   14.71    3.50
  -1  10  -9   17.69    3.57
   1 -10   8   20.75    3.93
   1 -10   8   21.55    3.79
  -1  10  -8   16.53    3.35
   1 -10   7    7.43    2.77
  -1  10  -7    6.99    2.62
   1 -10   6    0.07    2.11
  -1  10  -6    1.31    2.11
   1 -10   5   31.09    4.00
  -1  10  -5   25.85    3.64
   1 -10   4    9.76    2.18
   1 -10   4   12.60    2.91
  -1  10  -4    9.39    2.62
   1 -10   3    3.79    1.82
   1 -10   3    1.38    2.11
  -1  10  -3    1.67    1.97
   1 -10   2  141.55    5.53
   1 -10   2  138.20    6.26
  -1  10  -2  123.06    5.97
   1 -10   1    6.33    2.40
  -1  10  -1    8.81    2.55
  -1  10  -1    4.08    2.11
  -1  10  -1    5.83    0.95
  -1  10  -1    5.75    0.95
   1 -10   0   12.38    2.91
  -1  10   0   12.16    2.33
  -1  10   0   14.20    2.84
  -1  10   0    9.54    1.46
   1 -10  -1   78.13    5.10
  -1  10   1   76.60    4.37
  -1  10   1   69.17    4.59
  -1  10   1   71.80    3.20
  -1  10   1   63.06    2.91
   1 -10  -2  179.85    6.84
  -1  10   2  177.45    6.26
   1 -10  -3  125.10    5.90
  -1  10   3  125.17    5.68
   1 -10  -4  103.40    5.46
  -1  10   4  112.13    5.68
   1 -10  -5   91.82    5.17
   1 -10  -5   81.19    4.95
  -1  10   5   90.07    5.32
   1 -10  -6   24.90    3.42
   1 -10  -6   23.37    3.35
  -1  10   6   26.29    3.71
   1 -10  -7   48.93    4.15
   1 -10  -7   49.51    4.44
   1 -10  -7   49.51    2.77
   1 -10  -7   41.36    2.55
  -1  10   7   49.88    4.95
   1 -10  -8   18.64    3.06
   1 -10  -8   15.51    3.20
   1 -10  -8   18.06    1.82
   1 -10  -8   18.49    1.75
  -1  10   8   21.63    3.71
   1 -10  -9   27.09    4.00
  -1  10   9   34.00    4.51
   1 -10 -10   12.89    3.20
  -1  10  10   10.63    3.28
   1 -10 -11   11.58    3.28
  -1  10  11   13.69    3.57
   1 -10 -12    6.19    2.84
  -1  10  12    9.76    3.64
   2 -10  13    3.79    2.91
  -2  10 -13    3.28    3.06
   2 -10  12    9.61    3.64
   2 -10  12    5.68    2.91
  -2  10 -12    8.16    3.42
  -2  10 -12   12.23    3.35
   2 -10  11   58.11    5.68
   2 -10  11   57.81    5.32
  -2  10 -11   54.10    5.68
  -2  10 -11   44.64    4.88
   2 -10  10   33.57    4.66
   2 -10  10   32.48    4.30
  -2  10 -10   37.72    4.81
  -2  10 -10   35.82    4.59
   2 -10   9    2.33    2.77
   2 -10   9    2.84    2.40
  -2  10  -9    1.89    2.55
  -2  10  -9    3.71    2.48
   2 -10   8   45.65    4.81
   2 -10   8   41.07    4.51
  -2  10  -8   41.80    4.66
  -2  10  -8   42.09    4.51
   2 -10   7   19.51    3.50
   2 -10   7   17.11    3.35
  -2  10  -7   19.08    3.35
   2 -10   6   32.99    3.50
   2 -10   6   38.96    4.30
   2 -10   6   38.37    4.30
  -2  10  -6   25.92    3.57
   2 -10   5   17.04    2.69
   2 -10   5   17.04    3.20
   2 -10   5   17.04    3.13
  -2  10  -5   17.18    3.06
   2 -10   4   84.83    4.59
   2 -10   4   86.50    5.32
  -2  10  -4   78.28    5.02
   2 -10   3   52.14    3.93
   2 -10   3   57.16    4.59
  -2  10  -3   45.51    4.15
   2 -10   2  235.12    6.92
   2 -10   2  252.16    7.86
  -2  10  -2  224.78    7.35
   2 -10   1  570.21   10.49
   2 -10   1  566.43   11.21
  -2  10  -1  569.78    9.17
  -2  10  -1  514.65    6.19
  -2  10  -1  464.19    5.90
   2 -10   0  322.28    8.16
   2 -10   0  331.74    8.66
  -2  10   0  349.15    7.65
  -2  10   0  319.22    5.61
  -2  10   0  274.22    5.24
   2 -10  -1   84.61    5.02
  -2  10   1   87.52    4.59
  -2  10   1   79.00    3.35
  -2  10   1   63.35    2.99
   2 -10  -2  135.14    5.83
  -2  10   2  137.84    5.53
   2 -10  -3   96.84    5.24
  -2  10   3   93.42    5.02
   2 -10  -4  324.90    8.45
  -2  10   4  309.61    8.37
   2 -10  -5   21.84    3.06
  -2  10   5   20.24    3.35
   2 -10  -6   10.34    2.40
   2 -10  -6    9.47    2.55
   2 -10  -6    7.35    1.60
   2 -10  -6    8.45    1.53
  -2  10   6    8.30    2.62
   2 -10  -7   15.87    2.69
   2 -10  -7   16.82    3.06
   2 -10  -7   15.44    1.89
   2 -10  -7   16.75    1.75
  -2  10   7   21.12    3.57
   2 -10  -8   83.66    5.39
  -2  10   8   90.14    5.83
   2 -10  -9   33.71    4.37
  -2  10   9   42.60    4.81
   2 -10 -10   12.01    3.13
  -2  10  10    9.39    3.06
   2 -10 -11   21.70    3.93
  -2  10  11   23.30    4.08
   2 -10 -12   12.60    3.35
  -2  10  12   17.99    3.86
   3 -10  12   36.26    5.10
  -3  10 -12   36.19    4.95
  -3  10 -12   32.26    4.30
   3 -10  11   21.41    4.22
  -3  10 -11   14.20    3.71
  -3  10 -11   15.44    3.28
   3 -10  10   37.35    4.95
  -3  10 -10   38.59    4.88
  -3  10 -10   25.92    3.71
   3 -10   9   23.74    3.93
  -3  10  -9   21.84    3.71
  -3  10  -9   16.02    3.13
   3 -10   8    1.82    1.89
   3 -10   8    2.26    2.48
  -3  10  -8    1.75    2.26
  -3  10  -8   -0.22    2.04
   3 -10   7   25.34    3.20
   3 -10   7   25.19    3.93
  -3  10  -7   25.85    3.64
  -3  10  -7   24.25    3.64
   3 -10   6    0.73    1.75
   3 -10   6   -1.24    1.97
  -3  10  -6    1.53    2.04
  -3  10  -6   -0.07    1.89
   3 -10   5  205.41    6.63
   3 -10   5  214.59    7.28
  -3  10  -5  201.41    6.99
  -3  10  -5  190.05    6.99
   3 -10   4  164.34    6.04
   3 -10   4  166.89    6.26
   3 -10   4  164.12    6.48
   3 -10   3   46.02    3.86
   3 -10   3   49.44    4.30
   3 -10   2   67.21    4.30
   3 -10   2   71.43    4.73
  -3  10  -2   63.93    2.18
  -3  10  -2   54.10    2.04
   3 -10   1   47.48    3.86
   3 -10   1   50.75    4.22
  -3  10  -1   47.40    3.35
  -3  10  -1   43.40    2.33
  -3  10  -1   35.68    2.11
   3 -10   0  152.69    5.97
   3 -10   0  162.38    6.19
  -3  10   0  158.15    5.32
  -3  10   0  153.71    4.22
  -3  10   0  125.46    3.79
   3 -10  -1  351.04    8.59
   3 -10  -1  361.23    8.66
  -3  10   1  361.74    7.94
   3 -10  -2   55.12    4.22
   3 -10  -2   59.34    4.30
  -3  10   2   62.40    4.08
   3 -10  -3   13.76    2.69
  -3  10   3   15.66    2.77
   3 -10  -4  151.67    5.75
  -3  10   4  145.48    6.04
   3 -10  -5   79.66    4.51
   3 -10  -5   78.71    3.35
   3 -10  -5   76.24    3.20
  -3  10   5   83.15    5.10
   3 -10  -6   40.41    3.50
   3 -10  -6   39.68    3.93
   3 -10  -6   43.25    2.48
   3 -10  -6   35.97    2.26
  -3  10   6   40.85    4.08
   3 -10  -7   13.11    2.55
   3 -10  -7   14.20    3.13
   3 -10  -7   11.87    1.46
   3 -10  -7   10.85    1.38
  -3  10   7   10.19    2.77
   3 -10  -8   22.35    3.79
  -3  10   8   22.14    3.57
   3 -10  -9    1.82    2.18
  -3  10   9    2.99    2.33
   3 -10 -10   28.54    4.22
  -3  10  10   33.64    4.37
   3 -10 -11   69.61    5.75
  -3  10  11   74.49    5.97
   3 -10 -12   46.75    5.39
  -3  10  12   42.67    5.32
   3 -10 -13   38.15    6.70
  -3  10  13   51.33    7.65
   4 -10  13  126.62    8.01
  -4  10 -13  124.59    7.79
   4 -10  12    4.81    3.13
  -4  10 -12    0.73    2.69
   4 -10  11   17.18    3.93
  -4  10 -11    9.90    3.28
  -4  10 -11   13.40    3.13
   4 -10  10   88.11    5.53
   4 -10  10   90.65    6.12
  -4  10 -10   95.17    6.19
  -4  10 -10   77.26    5.32
   4 -10   9   45.07    4.22
   4 -10   9   41.43    4.66
  -4  10  -9   42.31    4.66
  -4  10  -9   44.13    4.37
   4 -10   8   32.26    3.86
   4 -10   8   35.32    4.37
  -4  10  -8   36.92    4.30
  -4  10  -8   32.84    4.00
   4 -10   7   62.98    4.44
   4 -10   7   68.74    4.95
  -4  10  -7   68.96    4.88
  -4  10  -7   67.06    4.81
   4 -10   6    8.08    2.33
   4 -10   6    8.37    2.69
  -4  10  -6    9.47    2.55
  -4  10  -6    7.86    2.48
   4 -10   5   39.25    3.79
   4 -10   5   50.39    4.30
  -4  10  -5   42.52    3.93
   4 -10   4   52.28    4.00
   4 -10   4   55.27    4.15
  -4  10  -4   56.80    4.37
  -4  10  -4   52.72    4.00
   4 -10   3   11.29    2.48
   4 -10   3   17.26    2.91
  -4  10  -3   10.34    2.62
  -4  10  -3   15.51    2.62
   4 -10   2   35.90    3.50
   4 -10   2   34.95    3.28
  -4  10  -2   32.11    3.79
  -4  10  -2   34.95    2.91
  -4  10  -2   32.69    1.97
  -4  10  -2   29.27    1.82
   4 -10   1  473.95    9.68
   4 -10   1  480.14    9.90
  -4  10  -1  481.09   10.12
  -4  10  -1  483.71    8.37
  -4  10  -1  471.33    6.70
  -4  10  -1  398.37    6.19
   4 -10   0  107.69    5.10
   4 -10   0  111.12    5.17
  -4  10   0  106.60    5.32
  -4  10   0  113.88    4.66
  -4  10   0  112.43    3.86
  -4  10   0   91.46    3.42
   4 -10  -1  218.95    6.92
   4 -10  -1  240.07    6.99
  -4  10   1  222.23    7.14
  -4  10   1  227.84    6.48
   4 -10  -2  183.86    6.48
   4 -10  -2  190.41    6.26
  -4  10   2  174.03    6.48
  -4  10   2  187.35    6.19
   4 -10  -3  384.10    9.17
   4 -10  -3  401.36    8.59
  -4  10   3  390.00    9.17
  -4  10   3  399.97    8.96
   4 -10  -4   83.52    4.37
   4 -10  -4   85.70    5.39
   4 -10  -4   68.15    3.06
  -4  10   4   80.68    4.81
  -4  10   4   78.57    4.73
   4 -10  -5  294.32    7.28
   4 -10  -5  264.83    5.32
   4 -10  -5  246.19    5.10
  -4  10   5  260.90    7.72
  -4  10   5  261.77    7.86
   4 -10  -6  116.21    4.81
   4 -10  -6  101.50    3.20
   4 -10  -6  102.74    3.13
  -4  10   6  113.45    5.46
  -4  10   6  110.61    5.75
   4 -10  -7   31.46    4.00
  -4  10   7   28.91    3.42
  -4  10   7   27.96    3.71
   4 -10  -8   62.55    5.02
  -4  10   8   64.88    5.10
   4 -10  -9   77.84    5.61
  -4  10   9   82.64    5.75
   4 -10 -10    0.22    2.33
  -4  10  10    3.50    2.48
   4 -10 -11   54.47    5.39
  -4  10  11   58.91    5.32
   4 -10 -12    1.38    2.62
  -4  10  12   -1.17    2.26
   4 -10 -13   32.69    5.24
  -4  10  13   31.46    4.88
  -5  10 -13    8.74    3.50
  -5  10 -12    2.62    2.91
   5 -10  11   -0.36    2.11
  -5  10 -11    2.11    2.62
  -5  10 -11    0.15    2.04
   5 -10  10   14.64    3.06
  -5  10 -10   14.93    3.71
  -5  10 -10   10.85    2.84
   5 -10   9   73.11    5.02
  -5  10  -9   77.98    5.68
  -5  10  -9   76.16    5.10
   5 -10   8   68.52    4.81
  -5  10  -8   63.35    4.95
  -5  10  -8   64.66    4.81
   5 -10   7   84.54    5.10
  -5  10  -7   90.80    5.02
  -5  10  -7   86.72    5.24
   5 -10   6    5.32    2.26
  -5  10  -6    3.93    2.11
  -5  10  -6    5.24    2.18
   5 -10   5  200.46    6.84
   5 -10   5  217.28    6.92
  -5  10  -5  217.13    7.06
  -5  10  -5  209.20    6.70
   5 -10   4   97.50    5.10
   5 -10   4  101.21    4.88
  -5  10  -4  107.26    5.39
  -5  10  -4  102.30    4.88
   5 -10   3   68.37    4.44
   5 -10   3   69.83    4.08
  -5  10  -3   66.19    4.59
  -5  10  -3   69.47    4.00
  -5  10  -3   66.99    2.33
  -5  10  -3   57.09    2.18
   5 -10   2   19.59    2.91
   5 -10   2   21.55    2.77
  -5  10  -2   19.73    3.13
  -5  10  -2   21.99    2.62
  -5  10  -2   19.08    2.55
  -5  10  -2   18.93    1.97
  -5  10  -2   13.83    1.60
   5 -10   1  156.41    6.04
   5 -10   1  155.61    5.02
  -5  10  -1  150.87    6.12
  -5  10  -1  159.97    5.17
  -5  10  -1  162.74    4.30
  -5  10  -1  130.48    3.86
   5 -10   0   84.47    4.73
  -5  10   0   86.72    4.95
  -5  10   0   86.58    4.30
   5 -10  -1   73.76    4.59
   5 -10  -1   80.17    4.44
  -5  10   1   78.79    4.73
  -5  10   1   81.92    4.37
   5 -10  -2  217.93    6.99
   5 -10  -2  244.44    6.77
  -5  10   2  219.76    7.06
  -5  10   2  228.06    6.77
   5 -10  -3   76.09    4.66
   5 -10  -3   77.33    4.22
  -5  10   3   75.22    4.73
  -5  10   3   80.02    4.66
   5 -10  -4    7.06    2.26
   5 -10  -4   12.67    2.33
   5 -10  -4   10.56    1.60
   5 -10  -4    9.61    1.60
  -5  10   4   10.27    2.48
  -5  10   4    8.59    2.40
   5 -10  -5    6.55    1.89
   5 -10  -5    3.64    1.17
   5 -10  -5    4.95    1.17
  -5  10   5    3.71    2.11
  -5  10   5    4.73    2.26
   5 -10  -6   54.90    2.18
   5 -10  -6   44.56    1.97
  -5  10   6   46.67    4.08
  -5  10   6   48.28    4.37
   5 -10  -7   27.16    3.64
  -5  10   7   39.39    3.86
  -5  10   7   36.70    4.08
   5 -10  -8   24.61    3.93
  -5  10   8   17.91    2.99
  -5  10   8   19.15    3.57
   5 -10  -9    3.20    2.40
  -5  10   9    2.69    2.04
  -5  10   9    2.55    2.33
   5 -10 -10    7.14    2.91
  -5  10  10   11.14    3.06
   5 -10 -11   12.74    3.42
  -5  10  11   12.45    3.42
   5 -10 -12   10.19    3.35
  -5  10  12   11.21    3.57
   5 -10 -13   52.14    5.83
  -5  10  13   54.90    5.75
   6 -10  13    0.00    2.55
  -6  10 -13    0.66    2.91
   6 -10  12   13.25    3.42
  -6  10 -12   16.02    3.86
   6 -10  11   49.95    5.02
  -6  10 -11   57.38    5.53
   6 -10  10  104.63    6.04
  -6  10 -10  103.83    6.33
  -6  10 -10   93.93    5.53
   6 -10   9   48.42    4.73
  -6  10  -9   50.61    4.88
  -6  10  -9   54.54    4.44
   6 -10   8   29.49    3.93
  -6  10  -8   31.09    3.64
  -6  10  -8   28.18    3.93
   6 -10   7   29.85    3.79
  -6  10  -7   30.80    3.64
  -6  10  -7   30.29    3.79
   6 -10   6   71.29    4.73
  -6  10  -6   70.63    4.59
  -6  10  -6   73.54    4.66
   6 -10   5  266.72    7.86
  -6  10  -5  280.92    7.94
  -6  10  -5  268.69    7.43
   6 -10   4   19.73    3.13
  -6  10  -4   16.67    2.91
  -6  10  -4   16.60    2.62
  -6  10  -4   16.46    1.38
  -6  10  -4   13.62    1.24
   6 -10   3   92.47    5.02
  -6  10  -3   95.68    5.17
  -6  10  -3   90.95    4.37
  -6  10  -3   97.28    3.13
  -6  10  -3   79.73    2.77
   6 -10   2  265.12    7.72
   6 -10   2  269.92    6.55
  -6  10  -2  259.58    7.65
  -6  10  -2  274.66    6.55
  -6  10  -2  263.59    5.24
  -6  10  -2  215.39    4.73
   6 -10   1  489.39   10.12
   6 -10   1  523.03    8.37
  -6  10  -1  507.59   10.34
  -6  10  -1  511.16    8.23
  -6  10  -1  510.80    7.65
  -6  10  -1  426.77    7.57
   6 -10   0  245.75    7.35
  -6  10   0  246.48    7.43
   6 -10  -1    7.43    2.33
  -6  10   1    9.68    2.40
   6 -10  -2  164.20    6.26
  -6  10   2  151.53    6.12
   6 -10  -3  144.76    5.97
   6 -10  -3  151.89    5.32
   6 -10  -3  128.01    4.00
   6 -10  -3  128.30    3.93
  -6  10   3  141.04    5.97
   6 -10  -4   55.85    4.30
   6 -10  -4   61.46    3.71
   6 -10  -4   55.27    2.69
   6 -10  -4   48.35    2.48
  -6  10   4   57.81    4.37
  -6  10   4   53.88    4.15
   6 -10  -5  140.97    6.12
   6 -10  -5  137.11    3.42
   6 -10  -5  132.16    3.28
  -6  10   5  137.33    5.97
  -6  10   5  142.28    6.12
  -6  10   6    2.04    1.97
  -6  10   6    0.87    1.97
  -6  10   7   78.06    4.81
  -6  10   7   87.52    5.53
   6 -10  -8  113.23    6.26
  -6  10   8  114.97    5.61
  -6  10   8  117.23    6.26
   6 -10  -9   23.66    3.86
  -6  10   9   27.23    3.50
  -6  10   9   24.25    3.79
   6 -10 -10   18.28    3.64
  -6  10  10   17.18    3.57
   6 -10 -11   19.08    3.93
  -6  10  11   17.62    3.79
   6 -10 -12   20.10    4.00
  -6  10  12   16.89    3.79
   6 -10 -13   18.20    4.22
  -6  10  13   19.88    4.08
   7 -10  14   17.04    3.93
   7 -10  13   38.01    5.02
  -7  10 -13   34.22    5.75
   7 -10  12   66.26    5.75
  -7  10 -12   69.61    6.26
   7 -10  11    9.32    3.13
  -7  10 -11   12.60    3.57
   7 -10  10   28.69    4.15
  -7  10 -10   32.91    4.51
   7 -10   9  214.88    8.01
  -7  10  -9  206.36    7.94
   7 -10   8   51.63    4.73
  -7  10  -8   58.69    4.37
  -7  10  -8   49.51    4.66
   7 -10   7   41.07    4.37
  -7  10  -7   46.31    4.08
  -7  10  -7   39.90    4.22
   7 -10   6   37.57    4.08
  -7  10  -6   42.60    4.00
  -7  10  -6   45.51    4.08
   7 -10   5  157.57    6.48
  -7  10  -5  170.53    6.48
  -7  10  -5  164.71    6.04
   7 -10   4   35.97    3.93
  -7  10  -4   33.64    3.79
  -7  10  -4   34.81    3.42
  -7  10  -4   36.04    2.11
  -7  10  -4   31.02    1.89
   7 -10   3  298.10    8.30
  -7  10  -3  221.21    7.21
  -7  10  -3  297.89    7.06
  -7  10  -3  306.26    5.53
  -7  10  -3  247.42    4.95
   7 -10   2   16.67    3.06
  -7  10  -2   14.42    2.84
  -7  10  -2   18.06    2.48
  -7  10  -2   16.24    1.97
  -7  10  -2   12.89    1.75
   7 -10   1  603.42   11.36
  -7  10  -1  615.65   11.43
  -7  10  -1  603.56   10.05
   7 -10   0  254.27    7.57
  -7  10   0  264.32    7.79
   7 -10  -1   72.01    4.59
  -7  10   1   74.05    4.81
   7 -10  -2   36.19    3.79
   7 -10  -2   37.86    3.06
   7 -10  -2   32.48    2.91
  -7  10   2   40.99    4.00
  -7  10   2   38.01    3.13
   7 -10  -3  285.80    8.08
   7 -10  -3  266.94    6.55
   7 -10  -3  257.40    5.32
   7 -10  -3  260.53    5.32
  -7  10   3  282.89    8.08
  -7  10   3  273.06    6.63
   7 -10  -4   21.33    3.35
   7 -10  -4   17.04    2.40
   7 -10  -4   19.73    2.77
   7 -10  -4   17.26    1.82
   7 -10  -4   16.24    1.67
  -7  10   4   19.59    3.06
  -7  10   4   20.24    2.84
   7 -10  -5   61.97    4.59
   7 -10  -5   55.12    2.04
   7 -10  -5   51.26    1.89
  -7  10   5   59.27    4.51
  -7  10   5   62.40    4.08
   7 -10  -6   25.12    3.57
  -7  10   6   22.35    3.28
  -7  10   6   24.76    3.28
  -7  10   7    7.57    2.26
  -7  10   7    7.86    2.48
  -7  10   7    7.28    2.55
   7 -10  -8   15.22    3.28
  -7  10   8   17.11    3.06
  -7  10   8   19.08    3.42
  -7  10   8   14.78    3.20
   7 -10  -9   20.83    3.86
  -7  10   9   26.07    3.57
  -7  10   9   17.99    3.50
   7 -10 -10   43.11    5.24
  -7  10  10   44.27    5.17
   7 -10 -11    3.57    2.99
  -7  10  11    5.02    2.84
   7 -10 -12  114.17    7.28
  -7  10  12  126.77    7.57
   7 -10 -13    7.57    3.57
  -7  10  13    8.74    3.28
   8 -10  13   16.53    4.00
   8 -10  12   85.41    6.41
  -8  10 -12   83.01    6.77
   8 -10  11  147.30    7.57
  -8  10 -11  150.36    7.72
   8 -10  10   56.29    5.39
  -8  10 -10   57.31    5.46
   8 -10   9    4.00    2.55
  -8  10  -9    5.97    2.69
   8 -10   8   69.32    5.39
  -8  10  -8   75.87    4.88
  -8  10  -8   73.18    5.10
   8 -10   7  153.42    6.84
  -8  10  -7  159.25    6.33
  -8  10  -7  157.43    6.63
   8 -10   6   12.60    2.91
  -8  10  -6   10.85    2.55
  -8  10  -6   13.33    2.84
   8 -10   5   26.94    3.71
  -8  10  -5   26.94    3.50
  -8  10  -5   28.76    3.50
  -8  10  -5   23.59    1.75
  -8  10  -5   20.10    1.60
   8 -10   4  184.80    6.99
  -8  10  -4  214.51    7.28
  -8  10  -4  201.11    6.33
  -8  10  -4  210.58    4.59
  -8  10  -4  176.43    4.22
   8 -10   3  193.76    7.14
  -8  10  -3  207.30    7.21
  -8  10  -3  189.46    5.90
  -8  10  -3  194.27    4.88
  -8  10  -3  169.44    4.44
   8 -10   2  442.57   10.12
  -8  10  -2  457.13   10.12
  -8  10  -2  428.81    8.30
   8 -10   1   96.99    5.32
  -8  10  -1  115.85    5.68
   8 -10   0  179.93    6.70
  -8  10   0  177.30    6.77
   8 -10  -1  239.05    7.57
  -8  10   1  232.35    7.57
   8 -10  -2   12.01    2.77
   8 -10  -2   11.36    2.26
   8 -10  -2   11.50    1.82
   8 -10  -2   11.00    1.82
  -8  10   2    9.61    2.62
  -8  10   2    9.83    2.18
   8 -10  -3   56.21    4.37
   8 -10  -3   64.95    3.93
   8 -10  -3   54.17    2.69
   8 -10  -3   56.87    2.69
  -8  10   3   60.80    4.59
  -8  10   3   64.51    3.86
   8 -10  -4   81.33    5.02
   8 -10  -4   83.74    4.59
   8 -10  -4   75.58    2.62
   8 -10  -4   72.74    2.48
  -8  10   4   81.63    5.10
  -8  10   4   87.81    4.51
   8 -10  -5    4.22    2.18
   8 -10  -5    6.92    2.26
  -8  10   5    7.43    2.55
  -8  10   5    6.84    2.26
   8 -10  -6   25.99    3.57
   8 -10  -6   24.83    3.35
  -8  10   6   25.27    3.50
  -8  10   6   23.52    3.35
   8 -10  -7   40.27    4.37
  -8  10   7   35.97    4.15
  -8  10   7   35.97    3.93
   8 -10  -8   31.97    4.44
   8 -10  -8   30.22    4.08
  -8  10   8   28.11    3.64
  -8  10   8   33.35    4.22
   8 -10  -9    3.64    2.69
  -8  10   9    1.97    2.11
  -8  10   9    3.57    2.48
  -8  10   9    0.00    2.26
   8 -10 -10  306.84   10.05
  -8  10  10  320.68    9.98
  -8  10  10  313.03   10.19
   8 -10 -11   59.71    5.97
  -8  10  11   70.63    5.90
  -8  10  11   58.62    5.68
   8 -10 -12   41.36    5.32
  -8  10  12   44.78    5.53
   9 -10  12   19.95    4.15
  -9  10 -12   21.48    4.30
   9 -10  11   28.47    4.44
  -9  10 -11   26.36    4.37
   9 -10  10   32.48    4.44
  -9  10 -10   34.37    4.66
   9 -10   9    1.97    2.48
  -9  10  -9    2.91    2.40
   9 -10   8   11.36    3.06
  -9  10  -8   11.21    2.55
  -9  10  -8   11.00    3.06
   9 -10   7   17.11    3.42
  -9  10  -7   21.77    3.35
  -9  10  -7   18.49    3.35
   9 -10   6   52.94    4.81
  -9  10  -6   57.81    4.66
  -9  10  -6   63.64    4.59
   9 -10   5    8.96    2.62
  -9  10  -5    9.39    2.62
  -9  10  -5   11.94    2.62
  -9  10  -5   11.72    1.75
  -9  10  -5    8.52    1.38
   9 -10   4  103.62    5.68
  -9  10  -4  112.72    5.83
  -9  10  -4   99.97    4.81
  -9  10  -4  108.20    3.79
  -9  10  -4   92.62    3.42
   9 -10   3   61.60    4.81
  -9  10  -3   64.44    4.81
  -9  10  -3   57.52    3.93
   9 -10   2   56.87    4.66
  -9  10  -2   58.76    4.73
   9 -10   1   45.51    4.37
  -9  10  -1   53.59    4.59
   9 -10   0  220.92    7.50
  -9  10   0  234.32    7.79
   9 -10  -1   84.47    5.10
  -9  10   1   81.41    5.32
   9 -10  -2  134.49    6.12
   9 -10  -2  142.57    5.32
   9 -10  -2  139.44    4.08
   9 -10  -2  131.14    4.00
  -9  10   2  144.83    6.48
   9 -10  -3   22.57    3.28
   9 -10  -3   23.88    3.06
   9 -10  -3   21.77    1.89
   9 -10  -3   22.28    1.89
  -9  10   3   25.49    3.57
   9 -10  -4    7.86    2.62
   9 -10  -4    8.59    2.48
  -9  10   4   11.87    2.84
   9 -10  -5    3.71    2.26
   9 -10  -5    4.37    2.26
  -9  10   5    2.40    2.18
   9 -10  -6   18.28    3.20
   9 -10  -6   21.19    3.35
  -9  10   6   21.77    3.42
  -9  10   6   21.33    3.35
   9 -10  -7   40.27    4.37
   9 -10  -7   36.55    4.37
  -9  10   7   32.99    4.00
  -9  10   7   37.86    4.22
   9 -10  -8  175.63    7.65
   9 -10  -8  183.20    7.57
  -9  10   8  190.99    7.50
  -9  10   8  188.81    7.50
   9 -10  -9   24.76    4.15
   9 -10  -9   25.70    4.15
  -9  10   9   26.87    3.86
  -9  10   9   22.35    4.00
   9 -10 -10   74.71    6.04
   9 -10 -10   70.85    6.04
  -9  10  10   73.98    5.83
   9 -10 -11   76.38    6.26
   9 -10 -11   79.88    6.41
  -9  10  11   84.32    6.26
  -9  10  11   78.06    6.48
   9 -10 -12   -0.29    2.84
  -9  10  12    0.73    2.77
  -9  10  12   -0.15    2.55
  10 -10  11   13.40    3.64
 -10  10 -11   14.49    3.64
  10 -10  10    3.42    2.69
 -10  10 -10    3.93    2.69
  10 -10   9   28.83    4.37
 -10  10  -9   27.52    4.15
  10 -10   8   13.40    3.28
 -10  10  -8   12.89    3.13
  10 -10   7   31.60    4.37
 -10  10  -7   31.82    4.08
 -10  10  -7   25.70    3.71
  10 -10   6   20.97    3.64
 -10  10  -6   29.78    3.86
 -10  10  -6   21.99    3.35
 -10  10  -6   21.99    1.82
 -10  10  -6   23.52    1.89
  10 -10   5   29.05    4.00
 -10  10  -5   34.81    4.22
 -10  10  -5   28.47    3.50
 -10  10  -5   33.20    2.55
 -10  10  -5   24.32    2.18
  10 -10   4   11.80    2.91
 -10  10  -4    8.96    2.77
 -10  10  -4    7.86    2.48
  10 -10   3   75.65    5.32
 -10  10  -3   80.68    5.46
  10 -10   2   31.38    4.00
 -10  10  -2   37.14    4.51
  10 -10   1   27.89    3.79
 -10  10  -1   30.00    4.00
  10 -10   0   38.08    4.15
 -10  10   0   37.43    4.44
  10 -10  -1  118.69    5.90
  10 -10  -1  108.35    3.86
  10 -10  -1  104.63    3.79
 -10  10   1  118.03    6.26
  10 -10  -2   42.96    4.30
  10 -10  -2   39.68    3.71
  10 -10  -2   42.01    2.55
  10 -10  -2   42.31    2.48
 -10  10   2   40.92    4.51
  10 -10  -3   18.93    3.35
  10 -10  -3   19.15    2.99
  10 -10  -3   21.41    1.75
  10 -10  -3   19.51    1.60
 -10  10   3   23.66    3.64
  10 -10  -4    3.93    2.33
  10 -10  -4    3.86    2.26
 -10  10   4    7.94    2.69
  10 -10  -5   30.80    3.93
  10 -10  -5   31.75    3.93
 -10  10   5   33.57    4.15
  10 -10  -6   27.09    3.79
  10 -10  -6   25.85    3.71
 -10  10   6   24.32    3.71
  10 -10  -7    1.38    2.18
  10 -10  -7    1.97    2.48
 -10  10   7    2.11    2.33
  10 -10  -8  150.00    7.21
  10 -10  -8  152.98    7.28
 -10  10   8  148.32    7.06
 -10  10   8  146.65    6.99
  10 -10  -9   -0.07    2.40
  10 -10  -9    3.28    2.91
 -10  10   9    0.80    2.33
 -10  10   9    5.10    2.99
  10 -10 -10   50.97    5.61
  10 -10 -10   59.64    6.12
 -10  10  10   51.55    5.46
  10 -10 -11    5.24    3.20
  10 -10 -11   11.00    3.64
 -10  10  11    8.08    3.50
  10 -10 -12   -2.18    2.55
 -11  10 -11    5.32    3.13
  11 -10  10    8.45    3.28
 -11  10 -10   11.21    3.35
  11 -10   9   21.26    4.00
 -11  10  -9   20.53    3.86
  11 -10   8    0.22    2.33
 -11  10  -8    0.73    2.33
  11 -10   7   18.06    3.71
 -11  10  -7   20.24    3.64
 -11  10  -7   17.40    3.42
  11 -10   6   10.12    3.20
 -11  10  -6   15.36    3.28
 -11  10  -6    9.25    2.77
 -11  10  -6   11.43    1.67
 -11  10  -6   14.71    1.89
  11 -10   5   10.63    3.13
 -11  10  -5   14.56    3.35
 -11  10  -5   10.92    1.97
 -11  10  -5    7.79    2.18
  11 -10   4    1.75    2.48
 -11  10  -4    7.06    2.77
  11 -10   3   61.82    5.17
 -11  10  -3   55.27    5.17
  11 -10   2  148.18    6.92
 -11  10  -2  141.84    6.99
  11 -10   1   35.02    4.37
 -11  10  -1   34.59    4.44
  11 -10   0   62.18    4.95
 -11  10   0   61.46    5.39
  11 -10  -1   51.12    4.66
  11 -10  -1   50.97    5.90
  11 -10  -1   46.53    2.84
  11 -10  -1   46.02    2.77
 -11  10   1   56.58    5.24
  11 -10  -2   56.65    4.88
  11 -10  -2   54.17    4.51
  11 -10  -2   51.48    2.48
  11 -10  -2   54.17    2.48
 -11  10   2   60.15    5.24
  11 -10  -3   22.28    3.35
  11 -10  -3   22.35    3.35
 -11  10   3   28.76    4.08
  11 -10  -4    8.88    2.77
  11 -10  -4    9.32    2.77
 -11  10   4    9.61    3.06
  11 -10  -5  158.66    6.77
  11 -10  -5  164.05    7.06
 -11  10   5  164.34    7.50
  11 -10  -6    4.00    2.40
  11 -10  -6    6.99    2.84
 -11  10   6    6.84    2.84
  11 -10  -7   99.83    5.83
  11 -10  -7  102.01    6.48
 -11  10   7   96.19    6.26
  11 -10  -8    2.62    2.55
  11 -10  -8    4.59    2.99
 -11  10   8    1.97    2.62
  11 -10  -9   47.18    5.02
  11 -10  -9   49.59    5.90
 -11  10   9   50.39    5.24
 -11  10   9   46.60    5.17
  11 -10 -10   15.66    3.71
  11 -10 -10   24.39    4.59
 -11  10  10   16.97    4.08
  11 -10 -11   33.06    4.81
 -12  10 -10   18.28    3.93
  12 -10   9    3.13    4.59
 -12  10  -9   -1.46    2.26
  12 -10   8    1.53    2.55
 -12  10  -8   -1.60    2.26
  12 -10   7   11.07    3.50
 -12  10  -7   13.76    3.35
 -12  10  -7   13.98    3.35
 -12  10  -7   13.47    1.67
 -12  10  -7   13.25    1.67
  12 -10   6   16.31    3.71
 -12  10  -6   23.74    4.08
 -12  10  -6   19.37    2.26
 -12  10  -6   18.93    2.33
  12 -10   5   19.15    3.71
 -12  10  -5   23.52    4.00
  12 -10   4   32.18    4.51
 -12  10  -4   36.99    4.66
  12 -10   3  147.67    7.21
 -12  10  -3  161.50    7.57
  12 -10   2   91.89    6.04
 -12  10  -2   95.75    6.41
  12 -10   1   28.91    4.08
 -12  10  -1   30.44    4.37
  12 -10   0   17.91    3.42
  12 -10   0   18.79    2.33
  12 -10   0   16.60    2.18
 -12  10   0   28.54    4.22
  12 -10  -1   72.09    5.32
  12 -10  -1   61.97    6.55
  12 -10  -1   63.35    2.91
  12 -10  -1   62.69    2.91
 -12  10   1   72.01    5.90
  12 -10  -2   25.56    3.71
  12 -10  -2   26.87    3.79
 -12  10   2   22.28    3.93
  12 -10  -3   26.14    3.93
  12 -10  -3   34.51    4.22
 -12  10   3   28.98    4.44
  12 -10  -4   10.85    2.99
  12 -10  -4    7.65    2.84
 -12  10   4   13.54    3.35
  12 -10  -5    3.86    2.48
  12 -10  -5    4.30    2.77
 -12  10   5    3.13    2.84
  12 -10  -6    4.08    2.77
 -12  10   6    3.50    2.84
  12 -10  -7   16.16    3.57
  12 -10  -7   18.71    3.93
 -12  10   7   18.42    3.79
  12 -10  -8   59.05    8.30
  12 -10  -8   77.84    6.63
 -12  10   8   70.85    6.04
  12 -10  -9   11.14    3.86
 -12  10   9   10.49    3.50
 -13  10  -9    2.33    2.84
 -13  10  -8   27.31    6.04
  13 -10   7   -1.67    2.55
 -13  10  -7    0.29    2.69
 -13  10  -7    1.09    1.09
 -13  10  -7   -0.51    1.17
  13 -10   6   -0.95    2.55
 -13  10  -6    2.99    2.84
  13 -10   5   78.35    6.26
 -13  10  -5   91.75    6.55
  13 -10   4   29.64    4.51
 -13  10  -4   30.95    4.59
  13 -10   3   36.63    4.73
 -13  10  -3   41.87    5.17
  13 -10   2   22.79    4.08
 -13  10  -2   18.35    3.93
  13 -10   1   52.94    5.24
 -13  10  -1   64.73    6.04
  13 -10   0    7.86    2.99
  13 -10   0    8.96    1.75
  13 -10   0    8.52    1.89
 -13  10   0   13.83    3.71
  13 -10  -1    5.17    2.77
  13 -10  -1    4.30    1.17
 -13  10   1    7.21    3.13
  13 -10  -2  138.20    6.77
  13 -10  -2  137.04    6.84
 -13  10   2  136.82    7.57
  13 -10  -3    2.84    2.55
  13 -10  -3    0.66    2.62
 -13  10   3    0.36    2.62
  13 -10  -4   12.09    3.42
 -13  10   4   14.49    3.71
  13 -10  -5    9.10    3.20
 -13  10   5    6.33    3.20
  13 -10  -6   26.65    4.44
 -13  10   6   24.39    4.51
  13 -10  -7   23.66    4.37
 -13  10   7   22.43    4.15
  13 -10  -8   62.91    6.70
 -13  10   8   62.62    6.19
 -13  10   9   14.05    4.95
 -14  10  -7   11.50    2.40
 -14  10  -7   11.43    2.33
 -14  10  -6  146.50    8.01
  14 -10   5   30.66    4.81
 -14  10  -5   38.74    5.24
  14 -10   4   34.88    4.95
 -14  10  -4   44.56    5.46
  14 -10   3   20.32    4.08
 -14  10  -3   23.66    4.51
  14 -10   2   22.35    4.08
 -14  10  -2   21.41    4.44
  14 -10   1    9.76    3.28
  14 -10   1    9.03    1.82
  14 -10   1   10.49    2.18
 -14  10  -1   15.00    3.93
  14 -10   0  108.79    6.55
  14 -10   0   87.96    3.06
  14 -10   0   94.30    3.20
 -14  10   0  120.87    7.65
  14 -10  -1   13.91    3.42
 -14  10   1   13.11    3.79
  14 -10  -2   34.59    4.59
 -14  10   2   34.37    5.02
  14 -10  -3    7.14    3.28
 -14  10   3    7.86    3.50
  14 -10  -4   13.03    3.86
 -14  10   4   12.09    3.79
  14 -10  -5   33.64    4.88
 -14  10   5   38.15    7.86
  14 -10  -6   64.81    6.41
  15 -10   3  146.28   10.49
  15 -10   2    8.08    3.35
  15 -10   2    4.08    2.40
  15 -10   1    0.51    2.91
  15 -10   1    3.93    1.75
  15 -10   1    2.40    1.89
  15 -10  -2    0.87    2.99
  15 -10  -3    1.60    3.13
   4  11   0    2.55    2.84
   4  11   1    2.40    2.55
  -3 -11   3   29.64    5.39
   3  11  -3   23.23    4.44
  -3 -11   2   29.71    4.88
   3  11  -2   27.96    4.59
  -3 -11   1   84.68    6.84
   3  11  -1   81.92    6.26
  -3 -11   0    0.00    2.62
   3  11   0    2.99    2.62
  -3 -11  -1   19.73    4.15
   3  11   1   22.86    4.00
  -3 -11  -2    3.13    2.99
   3  11   2    2.18    2.40
  -3 -11  -3    9.32    3.86
   3  11   3   14.71    3.79
   3  11   3    9.61    1.53
   3  11   3    8.74    1.38
   3  11   4   22.14    3.93
   3  11   5    1.38    2.40
  -2 -11   7   25.19    5.24
  -2 -11   6   57.09    6.04
   2  11  -6   58.91    6.99
  -2 -11   5    9.10    3.50
   2  11  -5   10.63    3.50
  -2 -11   4   16.67    4.00
   2  11  -4   14.20    3.64
  -2 -11   3   36.04    4.88
   2  11  -3   35.97    4.95
  -2 -11   2    6.70    3.13
   2  11  -2   10.56    3.20
  -2 -11   1   12.89    3.57
   2  11  -1   10.12    3.20
  -2 -11   0   79.00    6.41
   2  11   0   66.70    5.53
  -2 -11  -1   79.81    6.33
   2  11   1   72.31    5.53
  -2 -11  -2    6.55    2.91
   2  11   2    6.70    2.62
   2  11   2    5.97    1.24
   2  11   2    6.26    1.24
  -2 -11  -3    7.50    3.06
   2  11   3    7.06    2.77
   2  11   3    7.14    2.69
   2  11   3    6.63    1.60
   2  11   3    5.83    1.46
  -2 -11  -4    1.31    2.48
   2  11   4    1.67    2.33
  -2 -11  -5    5.32    2.84
   2  11   5   10.56    3.13
  -2 -11  -6   13.25    3.50
   2  11   6   12.67    3.42
  -2 -11  -7    3.64    2.48
   2  11   7    2.62    2.84
  -2 -11  -8    7.72    3.50
  -1 -11   9  103.98    7.86
  -1 -11   8   39.76    5.32
   1  11  -8   33.86    5.75
  -1 -11   7   79.81    6.63
   1  11  -7   66.33    6.26
  -1 -11   6    9.39    3.50
   1  11  -6    6.41    3.13
  -1 -11   5    2.55    2.91
   1  11  -5    5.32    2.99
  -1 -11   4   53.66    5.83
   1  11  -4   37.72    4.95
  -1 -11   3  211.60    8.74
   1  11  -3  197.62    8.37
  -1 -11   2   13.47    3.57
   1  11  -2   11.21    3.13
  -1 -11   1   32.26    4.59
   1  11  -1   33.86    4.44
  -1 -11   0  108.86    6.63
   1  11   0  107.26    6.19
  -1 -11  -1   39.98    4.95
   1  11   1   44.20    4.59
   1  11   1   35.75    2.04
   1  11   1   34.81    1.97
  -1 -11  -2   31.16    4.59
   1  11   2   29.27    3.93
   1  11   2   24.76    3.71
   1  11   2   23.01    2.18
   1  11   2   21.12    2.11
  -1 -11  -3   39.90    4.95
   1  11   3   39.03    4.44
   1  11   3   36.26    4.15
  -1 -11  -4   18.20    3.71
   1  11   4   13.91    3.13
   1  11   4   14.71    3.06
  -1 -11  -5   57.01    5.39
   1  11   5   52.14    5.10
  -1 -11  -6   18.79    3.64
   1  11   6   19.44    3.79
  -1 -11  -7   75.22    5.83
   1  11   7   75.51    5.97
  -1 -11  -8   15.15    3.28
   1  11   8   10.92    3.35
  -1 -11  -9   19.88    2.11
  -1 -11  -9   18.64    1.97
   0 -11  10   91.16    7.14
   0 -11   9   48.93    5.83
   0  11  -9   35.24    5.10
   0 -11   8   38.45    5.02
   0  11  -8   27.96    4.66
   0 -11   7    4.66    3.06
   0  11  -7    2.26    2.69
   0 -11   6   38.01    4.88
   0  11  -6   36.55    4.81
   0 -11   5    7.28    3.20
   0  11  -5    9.10    3.13
   0 -11   4   25.63    4.22
   0  11  -4   26.07    4.08
   0 -11   3   11.43    3.20
   0  11  -3    8.01    2.84
   0 -11   2   90.00    6.19
   0  11  -2   74.49    5.53
   0 -11   1   12.45    3.28
   0  11  -1   12.23    2.99
   0 -11   0   19.95    3.71
   0  11   0   13.40    3.06
   0 -11  -1   72.89    5.53
   0  11   1   66.70    4.59
   0  11   1   61.53    4.95
   0  11   1   56.21    2.69
   0  11   1   64.88    2.77
   0 -11  -2   59.05    5.17
   0  11   2   61.89    4.73
   0  11   2   53.01    4.81
   0  11   2   48.64    2.84
   0  11   2   47.62    2.91
   0 -11  -3   34.88    4.59
   0 -11  -3   30.66    5.83
   0  11   3   36.77    4.15
   0  11   3   31.02    3.86
   0 -11  -4   70.63    5.46
   0 -11  -4   72.67    4.88
   0  11   4   69.90    5.17
   0  11   4   66.99    4.81
   0 -11  -5   38.15    4.66
   0 -11  -5   37.79    4.22
   0  11   5   48.49    4.88
   0  11   5   37.35    4.00
   0 -11  -6   75.65    5.61
   0 -11  -6   76.09    5.17
   0  11   6   72.45    5.53
   0 -11  -7   16.89    3.42
   0 -11  -7   19.37    3.42
   0  11   7   15.95    3.50
   0 -11  -8   22.14    3.79
   0 -11  -8   19.22    3.57
   0 -11  -8   22.06    2.33
   0 -11  -8   20.02    2.11
   0  11   8   24.76    4.30
   0 -11  -9   16.67    3.57
   0  11   9   16.67    3.79
   0 -11 -10    9.47    3.13
   1 -11  11   32.55    4.88
  -1  11 -11   24.39    4.88
   1 -11  10   13.62    3.79
  -1  11 -10   15.00    3.79
   1 -11   9   53.15    5.83
  -1  11  -9   43.83    5.24
   1 -11   8    4.95    2.77
  -1  11  -8    2.04    2.69
   1 -11   7  100.19    6.63
  -1  11  -7   85.70    6.26
   1 -11   6    8.52    3.20
  -1  11  -6    9.83    3.13
   1 -11   5  161.72    7.65
  -1  11  -5  136.02    6.99
   1 -11   4    8.96    3.06
  -1  11  -4    5.53    2.48
   1 -11   3   24.17    3.28
   1 -11   3   24.47    3.86
  -1  11  -3   21.55    3.64
   1 -11   2   52.28    4.95
  -1  11  -2   50.75    4.81
   1 -11   1   53.15    4.95
  -1  11  -1   51.33    4.73
   1 -11   0   68.45    5.32
  -1  11   0   58.40    4.81
  -1  11   0   51.26    2.33
  -1  11   0   52.21    2.40
   1 -11  -1   34.81    4.30
  -1  11   1   31.02    3.71
  -1  11   1   33.06    4.08
  -1  11   1   28.83    2.26
   1 -11  -2  134.93    6.70
  -1  11   2  128.95    5.90
  -1  11   2  124.66    6.12
   1 -11  -3   49.59    4.73
  -1  11   3   51.26    4.51
  -1  11   3   47.18    4.30
   1 -11  -4    2.84    2.33
  -1  11   4    6.19    2.48
  -1  11   4    5.83    2.33
   1 -11  -5   14.34    3.06
   1 -11  -5   12.16    2.91
  -1  11   5   18.35    3.42
  -1  11   5   12.74    2.77
   1 -11  -6   12.60    2.99
   1 -11  -6    9.03    2.62
  -1  11   6   11.50    3.13
  -1  11   6   10.19    2.77
   1 -11  -7   21.26    3.42
   1 -11  -7   17.77    3.35
   1 -11  -7   15.51    2.33
  -1  11   7   17.69    3.64
   1 -11  -8    2.33    2.33
   1 -11  -8    2.04    1.17
   1 -11  -8    0.58    0.95
  -1  11   8   -1.60    2.26
   1 -11  -9   21.99    3.79
  -1  11   9   25.70    4.44
   1 -11 -10    6.48    2.91
  -1  11  10   10.78    3.42
   1 -11 -11    5.90    2.99
   2 -11  12   58.69    7.28
  -2  11 -12   55.48    6.12
   2 -11  11    6.04    3.79
   2 -11  11    7.35    3.28
  -2  11 -11    4.44    2.69
   2 -11  10   38.15    5.17
   2 -11  10   43.54    5.24
  -2  11 -10   37.14    4.88
   2 -11   9    8.74    3.28
   2 -11   9    5.46    2.99
  -2  11  -9    6.33    2.99
   2 -11   8   26.87    4.37
   2 -11   8   26.58    4.30
  -2  11  -8   21.70    3.79
   2 -11   7   37.28    4.73
  -2  11  -7   32.77    4.44
   2 -11   6   29.85    4.30
  -2  11  -6   33.93    4.44
   2 -11   5   15.87    2.77
   2 -11   5   18.06    3.57
  -2  11  -5   15.95    3.35
   2 -11   4   49.22    4.15
   2 -11   4   52.35    4.95
  -2  11  -4   40.27    4.44
   2 -11   3   21.63    3.06
   2 -11   3   23.37    3.71
  -2  11  -3   21.92    3.57
   2 -11   2   27.01    3.42
   2 -11   2   26.58    3.86
  -2  11  -2   21.84    3.50
   2 -11   1  146.21    6.19
   2 -11   1  155.82    6.92
  -2  11  -1  132.30    6.33
  -2  11  -1  119.78    2.99
   2 -11   0  273.20    8.66
  -2  11   0  266.14    7.28
  -2  11   0  244.51    5.02
  -2  11   0  221.14    4.73
   2 -11  -1  217.79    7.79
  -2  11   1  216.70    6.92
  -2  11   1  208.98    5.17
  -2  11   1  180.65    4.81
   2 -11  -2   64.30    5.02
  -2  11   2   60.58    4.44
   2 -11  -3   51.55    4.66
  -2  11   3   48.93    4.30
   2 -11  -4   33.64    4.00
  -2  11   4   32.55    3.93
   2 -11  -5   56.21    4.51
   2 -11  -5   53.88    4.44
  -2  11   5   55.78    4.73
   2 -11  -6   47.11    4.37
   2 -11  -6   41.07    4.44
  -2  11   6   46.97    4.81
   2 -11  -7   36.77    4.08
   2 -11  -7   41.87    4.59
   2 -11  -7   38.66    2.55
   2 -11  -7   37.35    2.40
  -2  11   7   43.11    4.81
   2 -11  -8   40.05    4.51
   2 -11  -8   35.10    2.11
   2 -11  -8   34.37    1.97
  -2  11   8   42.09    5.02
   2 -11  -9    6.99    2.69
  -2  11   9    8.59    3.06
   2 -11 -10   15.15    3.50
  -2  11  10   15.36    3.79
   2 -11 -11    5.39    2.77
  -2  11  11    4.30    3.35
   3 -11  12   12.16    3.50
  -3  11 -12   10.41    3.28
   3 -11  11   13.03    3.93
   3 -11  11   14.64    3.71
  -3  11 -11   17.04    4.00
  -3  11 -11   11.94    3.42
   3 -11  10   16.09    3.86
   3 -11  10   13.25    3.35
  -3  11 -10   16.82    3.79
  -3  11 -10   16.09    3.50
   3 -11   9    1.89    2.84
   3 -11   9    0.29    2.48
  -3  11  -9    1.75    2.77
  -3  11  -9    2.62    2.55
   3 -11   8   20.68    4.00
   3 -11   8   21.48    3.86
  -3  11  -8   19.88    3.71
  -3  11  -8   19.44    3.57
   3 -11   7    5.10    2.55
   3 -11   7    3.20    2.69
   3 -11   7    5.10    2.62
  -3  11  -7    5.32    2.69
   3 -11   6   59.49    4.51
   3 -11   6   54.61    4.95
   3 -11   6   53.59    5.02
  -3  11  -6   54.17    4.73
   3 -11   5    9.47    2.62
   3 -11   5   12.45    3.06
   3 -11   5   11.36    2.99
  -3  11  -5    6.55    2.62
   3 -11   4   11.50    2.69
   3 -11   4    6.99    2.69
  -3  11  -4    7.50    2.62
   3 -11   3   34.51    3.86
   3 -11   3   38.88    4.44
  -3  11  -3   31.02    4.00
   3 -11   2   74.93    4.88
   3 -11   2   69.61    5.10
   3 -11   1  156.41    6.33
   3 -11   1  163.18    6.84
  -3  11  -1  146.43    3.71
  -3  11  -1  131.07    3.50
   3 -11   0   10.56    2.62
   3 -11   0    9.47    2.77
  -3  11   0    7.43    2.11
  -3  11   0    7.06    1.53
  -3  11   0    5.90    1.38
   3 -11  -1  217.57    7.50
   3 -11  -1  223.03    7.65
  -3  11   1  227.47    6.92
   3 -11  -2   79.37    5.02
  -3  11   2   76.67    4.73
   3 -11  -3   35.68    3.93
  -3  11   3   32.18    3.86
   3 -11  -4   52.65    4.44
  -3  11   4   52.65    4.51
   3 -11  -5   44.64    4.00
  -3  11   5   46.02    4.51
   3 -11  -6   17.55    2.91
   3 -11  -6   17.18    3.13
   3 -11  -6   12.89    1.82
   3 -11  -6   14.85    1.89
  -3  11   6   17.48    3.42
   3 -11  -7   73.91    5.61
   3 -11  -7   69.47    2.91
   3 -11  -7   64.66    2.69
  -3  11   7   75.22    5.53
   3 -11  -8    4.00    2.55
  -3  11   8    5.61    2.69
   3 -11  -9   11.50    3.20
  -3  11   9   12.23    3.35
   3 -11 -10   28.83    4.44
  -3  11  10   31.38    4.44
   3 -11 -11    9.10    3.28
  -3  11  11    8.30    3.42
   4 -11  12    2.77    4.66
  -4  11 -12    2.48    4.81
  -4  11 -12    5.68    4.08
   4 -11  11   27.89    4.66
  -4  11 -11   26.29    4.44
  -4  11 -11   23.59    4.08
   4 -11  10   13.25    3.64
  -4  11 -10    9.03    3.28
  -4  11 -10   13.33    3.35
   4 -11   9   18.71    3.86
  -4  11  -9   19.00    3.71
  -4  11  -9   17.11    3.42
   4 -11   8   44.05    4.44
   4 -11   8   47.98    5.02
  -4  11  -8   45.07    4.95
  -4  11  -8   41.65    4.73
   4 -11   7   17.99    3.13
   4 -11   7   20.46    3.64
  -4  11  -7   19.08    3.42
  -4  11  -7   17.84    3.35
   4 -11   6    6.84    2.33
   4 -11   6    7.28    2.69
  -4  11  -6    4.66    2.40
  -4  11  -6    3.64    2.33
   4 -11   5   34.44    4.08
   4 -11   5   37.79    4.22
  -4  11  -5   38.59    4.15
  -4  11  -5   36.19    4.15
   4 -11   4   57.52    4.51
   4 -11   4   63.86    4.59
   4 -11   4   62.98    4.88
   4 -11   3   81.41    5.02
   4 -11   3   79.95    5.24
   4 -11   2  143.01    6.12
   4 -11   2  140.39    6.33
  -4  11  -2  129.25    3.20
  -4  11  -2  112.21    2.99
   4 -11   1   83.81    5.10
   4 -11   1   89.27    5.32
  -4  11  -1   83.59    4.30
  -4  11  -1   77.11    3.06
  -4  11  -1   66.41    2.84
   4 -11   0   17.33    3.06
   4 -11   0   13.91    2.99
  -4  11   0   17.48    3.13
  -4  11   0   16.60    2.69
  -4  11   0   16.16    2.04
  -4  11   0   16.89    2.11
   4 -11  -1  320.89    8.88
   4 -11  -1  332.76    8.81
  -4  11   1  320.89    9.03
  -4  11   1  329.92    8.08
   4 -11  -2   98.08    5.53
   4 -11  -2  102.45    5.32
  -4  11   2  106.96    5.83
  -4  11   2  102.89    5.17
   4 -11  -3   49.51    4.22
  -4  11   3   50.39    4.51
  -4  11   3   49.00    4.22
   4 -11  -4   60.22    4.37
  -4  11   4   54.25    4.66
  -4  11   4   62.98    4.73
   4 -11  -5   18.71    2.99
   4 -11  -5   16.02    2.33
   4 -11  -5   12.16    1.75
  -4  11   5   15.95    3.13
   4 -11  -6   13.40    2.91
   4 -11  -6   13.25    1.75
   4 -11  -6   11.36    1.60
  -4  11   6   12.82    2.99
   4 -11  -7   64.88    5.17
   4 -11  -7   59.42    2.33
   4 -11  -7   52.72    2.18
  -4  11   7   59.71    5.24
   4 -11  -8   38.15    4.73
  -4  11   8   39.47    4.73
   4 -11  -9    4.95    2.62
  -4  11   9    8.16    2.84
   4 -11 -10   14.71    3.64
  -4  11  10   18.35    3.71
   4 -11 -11    5.61    2.91
  -4  11  11    5.17    2.91
   5 -11  12   12.16    3.93
  -5  11 -12   11.07    3.71
   5 -11  11    7.14    3.28
  -5  11 -11    5.32    3.06
  -5  11 -11    5.46    2.69
   5 -11  10   23.45    3.71
   5 -11  10   24.03    4.22
  -5  11 -10   25.12    4.15
  -5  11 -10   23.96    3.93
   5 -11   9    0.44    2.18
   5 -11   9    0.80    2.62
  -5  11  -9   -1.09    2.18
  -5  11  -9    0.29    2.11
   5 -11   8   16.60    3.20
   5 -11   8   18.28    3.64
  -5  11  -8   16.24    3.42
  -5  11  -8   16.38    3.28
   5 -11   7    0.36    1.97
   5 -11   7    3.57    2.55
  -5  11  -7    2.62    2.33
  -5  11  -7    3.35    2.33
   5 -11   6   26.65    3.57
   5 -11   6   35.10    4.30
  -5  11  -6   31.75    3.93
   5 -11   5    6.77    2.55
   5 -11   5    7.35    2.69
  -5  11  -5    3.57    2.26
  -5  11  -5    4.22    2.18
   5 -11   4   42.67    4.22
   5 -11   4   40.99    4.08
  -5  11  -4   41.07    4.44
  -5  11  -4   42.89    4.00
   5 -11   3   67.06    4.88
   5 -11   3   69.98    4.44
  -5  11  -3   67.64    5.10
  -5  11  -3   57.89    2.04
   5 -11   2  187.57    7.06
   5 -11   2  195.80    6.26
  -5  11  -2  183.20    7.14
  -5  11  -2  179.71    4.15
  -5  11  -2  152.62    3.79
   5 -11   1   18.57    3.13
   5 -11   1   21.33    3.28
  -5  11  -1   21.19    3.28
  -5  11  -1   23.01    2.77
  -5  11  -1   24.03    2.26
  -5  11  -1   17.84    1.89
   5 -11   0   13.83    2.77
   5 -11   0   15.51    2.84
  -5  11   0   15.00    2.91
  -5  11   0   16.16    2.62
   5 -11  -1    9.90    2.69
   5 -11  -1    9.68    2.62
  -5  11   1   10.34    2.69
  -5  11   1   12.09    2.62
   5 -11  -2  172.35    6.77
   5 -11  -2  181.53    6.48
  -5  11   2  172.13    6.84
  -5  11   2  169.37    6.26
   5 -11  -3   13.03    2.84
   5 -11  -3   15.15    2.69
  -5  11   3   14.05    2.84
  -5  11   3   14.78    2.91
   5 -11  -4   12.45    2.77
   5 -11  -4   13.62    2.62
  -5  11   4   12.16    2.77
  -5  11   4   11.14    2.77
   5 -11  -5   22.06    2.99
   5 -11  -5   19.95    2.11
   5 -11  -5   18.71    1.97
  -5  11   5   18.93    3.13
  -5  11   5   25.63    3.71
   5 -11  -6   14.93    1.75
   5 -11  -6   10.05    1.38
  -5  11   6   12.67    2.84
  -5  11   6   17.84    3.28
   5 -11  -7   21.04    3.50
  -5  11   7   23.30    3.42
  -5  11   7   27.23    4.00
   5 -11  -8    7.21    2.91
  -5  11   8    7.35    2.48
  -5  11   8    8.08    2.84
   5 -11  -9   10.56    3.28
  -5  11   9   10.19    3.06
   5 -11 -10   58.11    5.61
  -5  11  10   60.95    5.75
   5 -11 -11    3.42    2.77
  -5  11  11    1.67    2.62
   5 -11 -12   29.85    6.26
  -5  11  12   35.24    6.55
  -6  11 -12   14.49    3.86
   6 -11  11    5.61    2.84
  -6  11 -11    3.28    2.99
   6 -11  10    4.59    2.77
  -6  11 -10    6.77    3.20
  -6  11 -10    8.23    2.84
   6 -11   9    3.93    2.40
  -6  11  -9    0.58    2.48
  -6  11  -9    1.75    2.33
   6 -11   8   47.40    4.81
  -6  11  -8   50.68    4.81
  -6  11  -8   41.07    4.37
   6 -11   7    3.06    2.33
  -6  11  -7    3.64    2.33
  -6  11  -7    4.44    2.33
   6 -11   6    8.66    2.77
  -6  11  -6    9.39    2.62
  -6  11  -6    7.86    2.55
   6 -11   5   63.35    4.95
   6 -11   5   68.08    4.81
  -6  11  -5   68.59    4.95
  -6  11  -5   63.64    4.59
   6 -11   4   82.57    5.39
   6 -11   4   82.50    4.88
  -6  11  -4   71.87    5.10
  -6  11  -4   73.40    4.51
   6 -11   3  295.99    8.59
   6 -11   3  315.00    7.86
  -6  11  -3  305.89    8.81
  -6  11  -3  290.46    7.50
  -6  11  -3  285.65    4.81
  -6  11  -3  255.00    4.51
   6 -11   2   91.38    5.39
   6 -11   2  106.02    4.88
  -6  11  -2   98.96    5.68
  -6  11  -2  104.13    4.73
  -6  11  -2   96.70    4.59
  -6  11  -2  102.89    3.57
  -6  11  -2   79.73    3.06
   6 -11   1   66.12    4.81
  -6  11  -1   66.99    4.95
  -6  11  -1   67.21    4.08
  -6  11  -1   64.95    3.20
   6 -11   0    0.51    1.97
  -6  11   0    1.38    2.04
  -6  11   0    1.75    1.82
   6 -11  -1   15.22    2.84
   6 -11  -1   13.25    2.62
  -6  11   1   14.93    2.91
  -6  11   1   13.03    2.55
   6 -11  -2    4.81    2.26
   6 -11  -2    7.57    2.18
  -6  11   2    6.63    2.33
  -6  11   2    8.81    2.40
   6 -11  -3   53.88    4.51
   6 -11  -3   50.68    3.93
  -6  11   3   49.73    4.44
  -6  11   3   49.88    4.22
   6 -11  -4   22.86    3.42
   6 -11  -4   25.12    3.13
   6 -11  -4   22.14    2.26
   6 -11  -4   22.06    2.11
  -6  11   4   23.66    3.50
  -6  11   4   22.72    3.35
   6 -11  -5  128.15    3.71
   6 -11  -5  124.37    3.57
  -6  11   5  139.22    6.41
  -6  11   5  133.69    6.33
  -6  11   6   28.76    3.79
  -6  11   6   33.20    4.22
  -6  11   7    1.38    2.18
  -6  11   7    1.09    2.26
   6 -11  -8   17.04    3.42
  -6  11   8   19.81    3.28
  -6  11   8   19.22    3.57
   6 -11  -9   17.48    3.71
  -6  11   9   14.05    2.99
  -6  11   9   14.42    3.50
   6 -11 -10   -2.33    2.48
  -6  11  10    1.38    2.40
   6 -11 -11    3.42    2.99
  -6  11  11    0.87    2.62
   6 -11 -12    4.95    5.10
  -6  11  12    3.50    3.42
   7 -11  13    2.99    3.13
   7 -11  12    5.53    3.20
  -7  11 -12    7.86    3.57
   7 -11  11   27.60    4.44
  -7  11 -11   33.49    4.88
   7 -11  10   16.02    3.57
  -7  11 -10   12.16    3.42
   7 -11   9   44.20    5.02
  -7  11  -9   46.89    5.02
  -7  11  -9   48.57    4.66
   7 -11   8   23.74    3.86
  -7  11  -8   37.28    4.30
  -7  11  -8   36.04    4.59
   7 -11   7   18.93    3.50
  -7  11  -7   21.99    3.42
  -7  11  -7   17.18    3.20
   7 -11   6   41.58    4.51
  -7  11  -6   35.10    4.15
  -7  11  -6   37.94    4.15
   7 -11   5   72.52    5.24
  -7  11  -5   77.04    5.17
  -7  11  -5   81.26    4.88
   7 -11   4  180.58    7.21
  -7  11  -4  196.16    7.28
  -7  11  -4  183.71    6.33
  -7  11  -4  192.52    3.64
  -7  11  -4  162.67    3.42
   7 -11   3  370.85    9.68
   7 -11   3  377.91    8.30
  -7  11  -3  386.87    9.83
  -7  11  -3  376.31    8.30
  -7  11  -3  373.39    6.04
  -7  11  -3  298.61    5.39
   7 -11   2  228.35    7.79
  -7  11  -2  215.39    7.65
  -7  11  -2  220.85    5.24
  -7  11  -2  185.90    4.73
   7 -11   1   56.94    4.73
  -7  11  -1   64.30    4.95
   7 -11   0    4.37    2.26
  -7  11   0    5.75    2.55
   7 -11  -1    6.84    2.40
  -7  11   1    6.26    2.48
   7 -11  -2   40.49    4.30
  -7  11   2   37.21    4.15
   7 -11  -3   52.43    4.51
   7 -11  -3   46.46    3.71
   7 -11  -3   49.15    3.86
   7 -11  -3   43.32    2.69
  -7  11   3   46.89    4.44
   7 -11  -4    8.45    2.69
   7 -11  -4   10.41    1.67
   7 -11  -4    7.43    1.38
  -7  11   4    5.90    2.48
   7 -11  -5    5.97    2.55
   7 -11  -5    7.43    1.31
   7 -11  -5    6.33    1.17
  -7  11   5    8.16    2.55
  -7  11   5    7.14    2.55
  -7  11   6  152.62    6.77
  -7  11   6  161.72    7.21
  -7  11   7   11.07    2.84
  -7  11   7    9.39    2.91
   7 -11  -8   16.75    3.57
  -7  11   8   18.20    3.28
  -7  11   8   17.26    3.57
   7 -11  -9   26.72    4.37
  -7  11   9   27.23    3.71
  -7  11   9   25.85    4.22
   7 -11 -10   14.27    3.79
  -7  11  10   13.03    3.57
   7 -11 -11   27.31    4.51
  -7  11  11   35.68    5.10
   8 -11  12   53.88    5.75
  -8  11 -12   67.94   10.49
   8 -11  11   28.69    4.51
  -8  11 -11   31.53    4.88
   8 -11  10   41.50    5.17
  -8  11 -10   49.37    5.46
   8 -11   9   70.56    5.83
  -8  11  -9   81.55    5.97
   8 -11   8   10.05    3.13
  -8  11  -8   17.77    3.20
  -8  11  -8   13.25    3.28
   8 -11   7    5.83    2.69
  -8  11  -7    5.39    2.48
  -8  11  -7    7.28    2.62
   8 -11   6    6.19    2.69
  -8  11  -6    8.66    2.69
  -8  11  -6    7.86    2.55
   8 -11   5   14.13    3.13
  -8  11  -5   17.18    3.13
  -8  11  -5   18.42    3.13
   8 -11   4   91.31    5.68
  -8  11  -4  102.45    5.68
  -8  11  -4  100.92    4.95
  -8  11  -4   94.37    3.20
  -8  11  -4   84.54    2.99
   8 -11   3    8.59    2.69
  -8  11  -3   11.65    2.77
  -8  11  -3   12.89    1.97
  -8  11  -3   10.49    1.67
   8 -11   2   31.09    3.93
  -8  11  -2   37.79    4.22
   8 -11   1   59.85    4.81
  -8  11  -1   65.10    4.95
   8 -11   0  206.72    7.65
  -8  11   0  210.22    7.65
   8 -11  -1   16.97    3.28
  -8  11   1    9.90    2.77
   8 -11  -2   -0.36    1.89
  -8  11   2    0.29    2.04
   8 -11  -3   24.03    3.64
   8 -11  -3   19.00    2.18
   8 -11  -3   20.02    2.04
  -8  11   3   16.24    3.06
   8 -11  -4   93.79    5.61
   8 -11  -4   93.79    5.24
   8 -11  -4   84.10    3.06
   8 -11  -4   80.82    2.91
  -8  11   4   98.01    5.75
   8 -11  -5  140.24    6.63
  -8  11   5  139.37    6.63
  -8  11   5  138.13    5.68
   8 -11  -6   15.87    3.35
  -8  11   6   11.43    2.84
  -8  11   6   14.42    2.91
  -8  11   7   57.96    4.88
  -8  11   7   63.42    4.81
   8 -11  -8   10.05    3.28
  -8  11   8    9.68    2.84
  -8  11   8   13.18    3.13
  -8  11   8    7.50    2.91
   8 -11  -9    5.75    3.13
  -8  11   9    5.46    2.77
  -8  11   9    6.19    2.84
   8 -11 -10   65.68    6.26
  -8  11  10   76.89    6.33
   8 -11 -11   35.24    5.10
  -8  11  11   37.86    5.39
   9 -11  11   23.81    4.37
  -9  11 -11   22.21    4.30
   9 -11  10  153.64    7.94
  -9  11 -10  157.94    7.86
   9 -11   9   12.67    3.50
  -9  11  -9   15.51    3.57
   9 -11   8    4.88    2.77
  -9  11  -8    8.01    2.77
  -9  11  -8    5.97    2.84
   9 -11   7   51.84    5.17
  -9  11  -7   60.80    4.95
  -9  11  -7   56.65    4.73
   9 -11   6    2.18    2.48
  -9  11  -6    2.91    2.11
  -9  11  -6    2.62    2.33
   9 -11   5   35.75    4.44
  -9  11  -5   34.59    4.22
  -9  11  -5   31.82    3.71
  -9  11  -5   29.78    1.97
  -9  11  -5   26.07    1.82
   9 -11   4  223.98    8.23
  -9  11  -4  244.66    8.23
  -9  11  -4  228.06    5.10
  -9  11  -4  197.91    4.66
   9 -11   3   12.52    2.99
  -9  11  -3    7.72    2.77
  -9  11  -3    7.21    2.99
   9 -11   2   96.48    5.83
  -9  11  -2  102.60    5.97
   9 -11   1  109.95    5.97
  -9  11  -1  105.65    5.97
   9 -11   0   77.40    5.32
  -9  11   0   80.02    5.46
   9 -11  -1   37.06    4.37
  -9  11   1   33.57    4.15
   9 -11  -2    2.99    2.33
   9 -11  -2    4.66    1.53
   9 -11  -2    2.99    1.38
  -9  11   2    3.50    2.48
   9 -11  -3   39.98    4.37
   9 -11  -3   38.52    2.48
   9 -11  -3   39.54    2.40
  -9  11   3   40.92    4.66
   9 -11  -4   18.79    3.50
   9 -11  -4   21.63    3.13
   9 -11  -4   14.42    1.60
   9 -11  -4   16.53    1.60
  -9  11   4   16.31    3.42
  -9  11   4   17.69    3.57
   9 -11  -5    8.37    2.62
   9 -11  -5   12.31    2.84
  -9  11   5    8.30    2.77
  -9  11   5    9.68    2.55
   9 -11  -6   43.11    4.66
   9 -11  -6   48.35    4.59
  -9  11   6   44.93    4.81
  -9  11   6   41.36    4.08
   9 -11  -7   23.01    3.64
  -9  11   7   17.11    3.35
  -9  11   7   21.12    3.57
   9 -11  -8   39.17    5.02
   9 -11  -8   49.73    5.02
  -9  11   8   43.62    4.88
  -9  11   8   40.41    4.51
   9 -11  -9   33.71    4.95
  -9  11   9   33.20    4.22
  -9  11   9   38.23    4.73
  -9  11   9   31.24    4.51
   9 -11 -10  120.80    7.43
  -9  11  10  128.08    7.21
  -9  11  10  122.55    7.43
   9 -11 -11   88.40    6.84
  -9  11  11   91.89    6.63
  -9  11  11   90.95    8.37
 -10  11 -11   18.93    4.22
  10 -11  10   24.83    4.51
 -10  11 -10   30.07    4.66
  10 -11   9    7.35    3.06
 -10  11  -9    8.30    2.99
  10 -11   8   39.39    5.17
 -10  11  -8   37.65    4.73
  10 -11   7   37.21    4.88
 -10  11  -7   43.98    4.66
 -10  11  -7   40.85    4.51
  10 -11   6   35.82    4.66
 -10  11  -6   44.49    4.66
 -10  11  -6   41.29    4.22
  10 -11   5   19.15    3.71
 -10  11  -5   22.79    3.64
 -10  11  -5   18.13    2.11
 -10  11  -5   16.60    1.82
  10 -11   4   55.05    5.10
 -10  11  -4   49.88    4.81
 -10  11  -4   54.03    3.13
 -10  11  -4   43.54    2.69
  10 -11   3   38.08    4.66
 -10  11  -3   35.46    4.37
  10 -11   2   23.74    3.71
 -10  11  -2   27.60    4.00
  10 -11   1   24.47    3.79
 -10  11  -1   26.43    4.00
  10 -11   0  117.38    6.26
 -10  11   0  119.93    6.48
  10 -11  -1    9.76    2.84
 -10  11   1   11.80    3.13
  10 -11  -2    6.48    2.62
  10 -11  -2    7.65    1.60
  10 -11  -2    5.90    1.53
 -10  11   2    9.39    2.91
  10 -11  -3    9.98    2.91
  10 -11  -3    9.61    1.53
  10 -11  -3    9.17    1.46
 -10  11   3   11.00    3.06
  10 -11  -4   69.54    5.32
  10 -11  -4   69.54    4.81
 -10  11   4   68.08    5.46
  10 -11  -5   12.89    3.28
  10 -11  -5   11.00    2.91
 -10  11   5    9.17    3.06
 -10  11   5   11.00    2.84
  10 -11  -6   25.12    3.71
  10 -11  -6   31.09    4.08
 -10  11   6   30.07    4.08
 -10  11   6   31.53    4.00
  10 -11  -7   18.93    3.71
  10 -11  -7   19.81    3.64
 -10  11   7   11.21    3.28
 -10  11   7   16.89    3.50
  10 -11  -8   49.88    5.46
  10 -11  -8   53.01    5.61
 -10  11   8   55.12    5.39
 -10  11   8   55.56    5.17
  10 -11  -9    7.14    3.28
  10 -11  -9   11.07    3.50
 -10  11   9   10.78    3.28
 -10  11   9   11.07    3.42
  10 -11 -10   27.31    4.51
  10 -11 -10   26.58    4.59
 -10  11  10   23.23    4.37
  10 -11 -11   40.27    5.90
 -10  11  11   37.57    6.04
 -11  11 -10    7.94    3.20
  11 -11   9   16.31    3.93
 -11  11  -9   12.01    3.35
  11 -11   8   18.42    4.00
 -11  11  -8   20.46    3.71
  11 -11   7   18.64    3.86
 -11  11  -7   20.32    3.71
 -11  11  -7   18.79    3.42
  11 -11   6   67.35    5.90
 -11  11  -6   86.29    5.83
 -11  11  -6   64.15    2.62
 -11  11  -6   72.31    2.77
  11 -11   5   50.53    5.24
 -11  11  -5   50.39    5.02
 -11  11  -5   48.35    2.99
 -11  11  -5   40.05    2.62
  11 -11   4   77.55    5.90
 -11  11  -4   79.73    5.75
  11 -11   3   29.34    4.22
 -11  11  -3   36.55    4.66
  11 -11   2   62.98    5.39
 -11  11  -2   65.10    5.75
  11 -11   1   70.85    5.53
 -11  11  -1   77.62    5.97
  11 -11   0   12.38    3.20
 -11  11   0   12.74    3.28
  11 -11  -1   16.89    3.42
  11 -11  -1   11.72    2.04
  11 -11  -1   11.00    1.89
 -11  11   1   15.29    3.50
  11 -11  -2   81.55    5.68
  11 -11  -2   73.54    3.13
  11 -11  -2   76.31    3.13
 -11  11   2   87.96    6.12
  11 -11  -3   14.05    3.35
 -11  11   3   11.50    3.35
  11 -11  -4   28.18    4.15
  11 -11  -4   24.32    3.64
 -11  11   4   28.83    4.15
  11 -11  -5    5.75    2.77
  11 -11  -5    6.41    2.77
 -11  11   5    7.28    3.06
  11 -11  -6   45.65    4.81
  11 -11  -6   42.82    5.02
 -11  11   6   43.83    5.24
  11 -11  -7    2.77    2.55
  11 -11  -7    2.04    2.77
 -11  11   7    3.50    2.84
 -11  11   7    4.08    2.62
  11 -11  -8   36.41    4.88
  11 -11  -8   36.55    4.81
 -11  11   8   29.64    4.37
 -11  11   8   39.25    4.95
  11 -11  -9   52.94    5.90
  11 -11  -9   51.48    5.83
 -11  11   9   48.06    5.53
 -11  11   9   51.12    5.53
  11 -11 -10   85.27    6.77
  11 -11 -10   85.63    6.99
 -11  11  10   85.63    6.70
 -12  11  -9   17.04    3.93
  12 -11   8  106.31   11.29
 -12  11  -8  118.03   10.19
  12 -11   7    7.50    3.28
 -12  11  -7    5.68    2.91
  12 -11   6    8.59    3.35
 -12  11  -6   10.78    3.20
 -12  11  -6   10.85    1.67
 -12  11  -6   11.65    1.82
  12 -11   5   33.79    4.73
 -12  11  -5   33.20    4.66
  12 -11   4    1.38    2.69
 -12  11  -4    2.48    2.77
  12 -11   3   18.49    3.79
 -12  11  -3   23.96    4.22
  12 -11   2   69.32    5.75
 -12  11  -2   66.63    6.04
  12 -11   1  137.47    7.06
 -12  11  -1  149.49    7.72
  12 -11   0   34.00    4.51
 -12  11   0   39.98    4.88
  12 -11  -1   24.83    4.08
  12 -11  -1   22.65    2.40
  12 -11  -1   20.02    2.33
 -12  11   1   24.61    4.22
  12 -11  -2   11.80    3.28
  12 -11  -2   10.19    1.53
  12 -11  -2   10.12    1.46
 -12  11   2   12.74    3.50
  12 -11  -3   15.36    3.42
 -12  11   3   10.12    3.50
  12 -11  -4   43.76    4.88
  12 -11  -4   45.07    4.88
 -12  11   4   37.14    4.81
  12 -11  -5   30.36    4.30
  12 -11  -5   30.15    4.30
 -12  11   5   28.47    4.51
  12 -11  -6   52.35    5.17
  12 -11  -6   51.55    5.53
 -12  11   6   50.97    5.75
  12 -11  -7   55.70    5.97
 -12  11   7   48.49    5.68
  12 -11  -8   42.96    5.32
  12 -11  -8   47.84    5.90
 -12  11   8   45.95    5.61
 -12  11   8   41.07    5.02
  12 -11  -9   35.46    4.95
  12 -11  -9   37.14    5.39
 -12  11   9   36.41    5.02
 -12  11   9   39.83    5.39
  12 -11 -10    5.02    5.24
 -13  11  -7   17.18    5.39
  13 -11   6    5.75    3.35
 -13  11  -6    6.70    3.13
 -13  11  -6    7.21    1.60
 -13  11  -6    5.90    1.75
  13 -11   5   26.87    4.51
 -13  11  -5   23.30    4.37
  13 -11   4   21.70    4.15
 -13  11  -4   21.77    4.30
  13 -11   3   28.11    4.51
 -13  11  -3   35.32    4.95
  13 -11   2    2.99    2.84
 -13  11  -2    5.17    3.20
  13 -11   1   15.58    3.71
 -13  11  -1   15.36    3.71
  13 -11   0   22.43    3.93
  13 -11   0   22.72    2.48
  13 -11   0   24.17    2.69
 -13  11   0   23.23    4.37
  13 -11  -1   21.63    3.86
  13 -11  -1   20.39    2.04
  13 -11  -1   21.04    2.11
 -13  11   1   24.10    4.37
  13 -11  -2    5.83    2.84
 -13  11   2    6.55    3.20
  13 -11  -3   60.87    5.32
 -13  11   3   58.18    6.04
  13 -11  -4   25.99    4.08
  13 -11  -4   30.44    4.59
 -13  11   4   27.45    4.73
  13 -11  -5   93.86    6.48
 -13  11   5   89.71    6.92
  13 -11  -6   17.18    4.00
 -13  11   6   12.96    3.79
  13 -11  -7   15.66    4.00
 -13  11   7   19.15    4.37
 -14  11  -6   10.78    4.30
 -14  11  -5  125.31    7.94
  14 -11   4    2.91    3.35
 -14  11  -4    2.55    3.20
  14 -11   3   46.97    5.68
 -14  11  -3   50.02    6.12
  14 -11   2    2.55    2.91
 -14  11  -2    2.48    3.13
  14 -11   1    0.36    2.55
 -14  11  -1    2.18    2.91
  14 -11   0   13.18    3.50
  14 -11   0   12.67    1.82
  14 -11   0   12.45    1.97
 -14  11   0   13.62    4.00
  14 -11  -1   12.16    3.50
 -14  11   1   13.69    4.00
  14 -11  -2   28.11    4.30
 -14  11   2   25.41    5.02
  14 -11  -4   98.88   10.19
  14 -11  -5   39.83    5.17
  14 -11  -6   35.75    6.92
  15 -11   1    2.77    3.57
  15 -11   0   71.72    6.19
   2  12  -1   48.71    5.46
   2  12   0   33.64    4.88
   2  12   1    8.45    3.06
   2  12   2   32.33    4.51
   2  12   3   10.85    1.75
   2  12   3    9.83    1.67
   2  12   4   11.87    3.86
  -1 -12   4    2.91    3.13
   1  12  -4    6.04    3.06
  -1 -12   3   26.72    4.59
   1  12  -3   18.28    4.00
  -1 -12   2  106.46    7.14
   1  12  -2  109.30    7.21
  -1 -12   1   22.28    4.22
   1  12  -1   20.46    4.00
  -1 -12   0   60.65    6.04
   1  12   0   57.45    5.68
  -1 -12  -1   68.23    6.26
   1  12   1   55.78    5.24
  -1 -12  -2   33.71    4.88
   1  12   2   28.98    4.22
   1  12   2   22.86    1.97
   1  12   2   24.39    1.97
  -1 -12  -3    7.57    3.06
   1  12   3    9.10    2.99
   1  12   3    7.86    1.67
   1  12   3    8.52    1.60
  -1 -12  -4   29.56    4.66
   1  12   4   24.90    4.08
  -1 -12  -5   28.32    4.51
   1  12   5   21.26    3.93
  -1 -12  -6    4.08    2.84
   1  12   6    0.36    2.48
   0 -12   7   62.40    7.43
   0 -12   6   54.76    6.19
   0  12  -6   36.84    5.02
   0 -12   5   45.07    5.61
   0  12  -5   36.33    5.10
   0 -12   4   14.27    3.93
   0  12  -4   14.05    3.64
   0 -12   3    6.84    3.20
   0  12  -3    5.17    2.91
   0 -12   2   12.82    3.64
   0  12  -2    7.72    2.99
   0 -12   1  121.67    7.28
   0  12  -1  104.78    6.55
   0 -12   0   53.45    5.53
   0  12   0   48.13    5.17
   0 -12  -1    4.44    2.77
   0  12   1    3.13    2.33
   0  12   1    2.84    1.02
   0  12   1    3.64    1.02
   0 -12  -2   22.35    4.00
   0  12   2   18.57    3.57
   0  12   2   20.90    2.18
   0  12   2   22.94    2.18
   0 -12  -3   20.83    3.93
   0  12   3   18.35    3.42
   0  12   3   23.01    3.71
   0 -12  -4    1.31    2.33
   0  12   4    1.75    2.26
   0  12   4   -0.51    2.11
   0 -12  -5   30.29    4.37
   0  12   5   30.51    4.44
   0 -12  -6   73.25    5.97
   0  12   6   72.01    5.90
   0 -12  -7   13.40    3.42
   0  12   7    8.30    3.13
   0 -12  -8   24.68    2.84
   0 -12  -8   22.86    2.33
   1 -12   8   41.50    5.39
  -1  12  -8   32.26    5.32
   1 -12   7   47.04    5.75
  -1  12  -7   39.17    5.24
   1 -12   6   50.24    5.90
  -1  12  -6   36.70    5.02
   1 -12   5   25.19    4.44
  -1  12  -5   22.28    4.00
   1 -12   4   46.53    5.53
  -1  12  -4   35.10    4.81
   1 -12   3   12.52    3.42
  -1  12  -3    4.95    2.84
   1 -12   2   13.83    3.64
  -1  12  -2    6.33    2.84
   1 -12   1   20.68    4.00
  -1  12  -1   21.04    3.79
   1 -12   0   35.82    4.73
  -1  12   0   39.10    4.81
   1 -12  -1  149.93    7.50
  -1  12   1  130.27    6.77
  -1  12   1  114.68    3.64
  -1  12   1  130.41    3.93
   1 -12  -2   64.15    5.53
  -1  12   2   69.32    5.02
  -1  12   2   66.12    5.24
   1 -12  -3   19.00    3.57
  -1  12   3   22.86    3.64
  -1  12   3   15.07    3.28
   1 -12  -4    1.82    2.40
   1 -12  -4    2.40    2.18
  -1  12   4    3.42    2.48
  -1  12   4    3.71    2.33
   1 -12  -5   25.85    3.93
   1 -12  -5   32.48    4.30
  -1  12   5   26.72    4.08
  -1  12   5   32.40    4.15
   1 -12  -6   12.74    3.13
   1 -12  -6   15.00    3.28
  -1  12   6   14.13    3.50
   1 -12  -7    2.77    2.48
   1 -12  -7    5.17    2.62
  -1  12   7    3.28    2.77
   1 -12  -8   93.20    6.26
   1 -12  -8   98.01    3.64
   1 -12  -8   87.09    3.42
  -1  12   8  112.13    7.28
   1 -12  -9   15.44    3.57
   2 -12   9    8.37    3.57
  -2  12  -9   10.63    3.50
   2 -12   8   71.94    6.55
  -2  12  -8   57.74    5.90
   2 -12   7   20.39    4.15
  -2  12  -7   16.82    3.79
   2 -12   6    8.66    3.28
  -2  12  -6    3.86    2.77
   2 -12   5    2.48    2.91
  -2  12  -5   -1.75    2.18
   2 -12   4   13.11    3.50
  -2  12  -4   10.70    3.13
   2 -12   3   21.04    3.28
   2 -12   3   20.75    3.86
  -2  12  -3   18.86    3.57
   2 -12   2   26.87    3.71
   2 -12   2   27.23    4.22
  -2  12  -2   20.17    3.71
   2 -12   1   75.22    5.75
  -2  12  -1   57.81    5.17
   2 -12   0   29.85    4.30
  -2  12   0   21.04    3.71
  -2  12   0   19.59    1.82
   2 -12  -1   27.82    4.08
  -2  12   1   24.76    3.86
  -2  12   1   21.33    2.48
  -2  12   1   20.39    2.11
   2 -12  -2   88.03    6.04
  -2  12   2   94.73    5.53
  -2  12   2   77.91    5.53
   2 -12  -3  154.08    7.14
  -2  12   3  154.37    6.84
   2 -12  -4   30.58    4.08
  -2  12   4   37.79    4.51
   2 -12  -5   20.39    3.64
   2 -12  -5   20.32    3.42
  -2  12   5   23.01    3.86
   2 -12  -6   18.20    3.35
   2 -12  -6   17.55    3.57
  -2  12   6   19.73    3.86
   2 -12  -7   14.49    3.42
   2 -12  -7   10.92    1.89
   2 -12  -7   11.50    1.82
  -2  12   7   13.62    3.57
   2 -12  -8    0.66    2.33
   2 -12  -8    1.82    1.09
   2 -12  -8    1.09    0.95
  -2  12   8    1.82    2.77
   2 -12  -9   -2.26    2.11
  -2  12   9    0.66    2.55
   2 -12 -10   16.75    4.15
   3 -12  10    3.57    4.15
   3 -12  10    2.91    3.06
  -3  12 -10    1.46    2.62
   3 -12   9    5.97    3.28
   3 -12   9    4.00    2.99
  -3  12  -9    3.57    2.84
   3 -12   8   14.64    3.71
   3 -12   8   15.29    3.71
  -3  12  -8    8.59    3.06
   3 -12   7    1.24    2.62
  -3  12  -7    1.60    2.48
   3 -12   6   67.64    5.90
  -3  12  -6   59.42    5.53
   3 -12   5    6.84    2.48
   3 -12   5    6.04    2.99
  -3  12  -5    5.90    2.77
   3 -12   4   33.71    4.22
   3 -12   4   35.17    4.59
  -3  12  -4   35.61    4.59
   3 -12   3   47.26    4.59
   3 -12   3   53.88    5.24
  -3  12  -3   48.64    4.73
   3 -12   2   33.79    4.22
   3 -12   2   32.91    4.37
  -3  12  -2   28.11    4.00
   3 -12   1    7.21    2.55
   3 -12   1    9.68    2.99
  -3  12  -1    5.39    1.09
   3 -12   0   95.90    5.75
   3 -12   0   99.90    6.04
  -3  12   0   86.50    3.42
  -3  12   0   71.36    3.06
   3 -12  -1  131.14    6.63
  -3  12   1  133.91    5.97
   3 -12  -2  142.72    6.84
  -3  12   2  137.77    6.19
   3 -12  -3   38.66    4.51
  -3  12   3   41.29    4.37
   3 -12  -4   10.19    2.91
  -3  12   4    7.94    2.69
   3 -12  -5   24.76    3.57
  -3  12   5   33.13    4.37
   3 -12  -6   14.20    2.99
   3 -12  -6   12.89    3.13
  -3  12   6   17.40    3.57
   3 -12  -7    8.59    3.13
   3 -12  -7    6.99    1.53
   3 -12  -7    5.24    1.31
  -3  12   7    8.37    3.13
   3 -12  -8    5.17    2.69
  -3  12   8    4.00    2.84
   3 -12  -9   43.83    5.17
  -3  12   9   47.91    5.61
   3 -12 -10    9.10    3.20
  -4  12 -11    7.28    3.28
   4 -12  10   10.78    3.79
  -4  12 -10   14.78    3.86
  -4  12 -10    5.02    2.91
   4 -12   9    2.33    2.91
   4 -12   9    0.00    2.62
  -4  12  -9    0.80    2.84
  -4  12  -9    2.69    2.69
   4 -12   8    1.31    2.91
   4 -12   8   -1.09    2.33
  -4  12  -8    0.95    2.55
  -4  12  -8    0.73    2.48
   4 -12   7    3.57    2.48
   4 -12   7    5.02    3.06
   4 -12   7    6.04    2.99
  -4  12  -7    5.90    2.91
   4 -12   6   36.26    4.44
   4 -12   6   39.47    4.81
   4 -12   6   36.19    4.73
  -4  12  -6   27.09    4.15
   4 -12   5   75.44    5.39
   4 -12   5   77.11    5.32
   4 -12   5   81.04    5.90
  -4  12  -5   76.31    5.75
   4 -12   4   15.95    3.13
   4 -12   4   18.93    3.57
  -4  12  -4   13.25    3.20
   4 -12   3    9.83    2.84
   4 -12   3    9.03    3.06
   4 -12   2   22.57    3.57
   4 -12   2   26.87    3.86
   4 -12   1   53.52    4.81
   4 -12   1   59.78    5.17
  -4  12  -1   54.90    2.69
  -4  12  -1   43.91    2.33
   4 -12   0   76.82    5.39
   4 -12   0   77.18    5.53
  -4  12   0   67.50    3.28
  -4  12   0   56.65    2.91
   4 -12  -1  234.83    8.23
   4 -12  -1  238.76    8.30
  -4  12   1  232.57    7.35
   4 -12  -2  239.42    8.16
  -4  12   2  236.43    7.65
   4 -12  -3   17.33    3.20
  -4  12   3   14.27    2.99
   4 -12  -4   91.97    5.46
  -4  12   4   83.52    5.53
   4 -12  -5    5.24    2.40
  -4  12   5    6.19    2.69
   4 -12  -6    9.83    1.75
   4 -12  -6    6.77    1.53
  -4  12   6   11.87    3.20
   4 -12  -7   44.71    5.24
   4 -12  -7   38.37    2.26
   4 -12  -7   34.88    2.11
  -4  12   7   42.82    4.88
   4 -12  -8   59.78    5.61
  -4  12   8   64.51    5.75
   4 -12  -9   16.75    3.64
  -4  12   9   22.43    4.15
   4 -12 -10   35.97    4.95
  -4  12  10   38.23    5.24
  -5  12 -11   11.65    3.42
   5 -12  10    1.17    3.13
  -5  12 -10    3.64    3.06
  -5  12 -10    0.80    2.55
   5 -12   9   15.44    4.08
   5 -12   9   14.42    3.93
  -5  12  -9    8.88    3.35
  -5  12  -9   10.12    3.20
   5 -12   8   16.97    3.42
   5 -12   8   22.21    4.15
  -5  12  -8   22.21    4.00
  -5  12  -8   16.75    3.50
   5 -12   7   75.07    5.61
   5 -12   7   73.47    5.83
  -5  12  -7   70.56    5.61
  -5  12  -7   66.77    5.53
   5 -12   6  106.31    6.12
   5 -12   6  110.68    6.33
  -5  12  -6  106.31    6.12
  -5  12  -6  100.92    6.19
   5 -12   5    4.44    2.55
   5 -12   5    2.33    2.48
   5 -12   4   41.43    4.59
   5 -12   4   47.55    4.44
   5 -12   3   54.90    4.95
   5 -12   3   59.20    5.02
   5 -12   2   10.12    2.84
   5 -12   2    7.35    2.77
  -5  12  -2    4.66    2.69
  -5  12  -2    8.08    1.38
  -5  12  -2    8.23    1.31
   5 -12   1  135.65    6.55
   5 -12   1  129.03    6.41
  -5  12  -1  128.01    6.63
  -5  12  -1  129.17    4.00
  -5  12  -1  105.65    3.64
   5 -12   0  118.47    6.19
   5 -12   0  129.76    6.41
  -5  12   0  118.32    6.41
  -5  12   0  123.64    5.53
   5 -12  -1    4.15    2.40
   5 -12  -1    7.21    2.62
  -5  12   1    4.37    2.62
  -5  12   1    2.55    2.11
   5 -12  -2   13.98    3.13
   5 -12  -2   16.97    3.20
  -5  12   2   14.64    3.20
  -5  12   2   17.18    3.13
   5 -12  -3   26.50    4.00
   5 -12  -3   36.12    4.15
  -5  12   3   29.13    4.00
  -5  12   3   32.04    3.86
   5 -12  -4   53.37    4.44
  -5  12   4   55.12    5.02
  -5  12   4   52.06    4.81
   5 -12  -5   19.51    3.93
   5 -12  -5   11.80    1.82
  -5  12   5   12.38    3.06
  -5  12   5   10.78    3.06
   5 -12  -6   43.25    2.55
   5 -12  -6   39.61    2.33
  -5  12   6   42.96    4.66
  -5  12   6   48.28    5.02
   5 -12  -7    6.48    2.84
  -5  12   7    5.17    2.77
   5 -12  -8   41.65    5.17
  -5  12   8   44.34    5.32
   5 -12  -9   21.19    4.08
  -5  12   9   21.41    4.08
   5 -12 -10   29.49    4.81
  -5  12  10   26.29    4.37
   6 -12  11   38.45    6.33
  -6  12 -11   34.51    5.46
   6 -12  10    7.06    3.06
   6 -12  10   11.14    3.71
  -6  12 -10    9.10    3.20
  -6  12 -10    7.94    2.99
   6 -12   9   42.52    5.10
   6 -12   9   57.45    5.83
  -6  12  -9   49.51    5.46
  -6  12  -9   43.32    5.10
   6 -12   8   51.33    5.17
   6 -12   8   54.68    5.39
  -6  12  -8   51.77    5.10
  -6  12  -8   51.26    5.02
   6 -12   7   58.69    5.24
   6 -12   7   65.53    5.61
  -6  12  -7   56.80    5.17
   6 -12   6    4.59    2.62
   6 -12   6    3.35    2.62
  -6  12  -6    3.71    2.40
   6 -12   5    9.54    2.99
   6 -12   5    9.03    2.91
  -6  12  -5    8.37    2.84
  -6  12  -5    8.81    2.69
   6 -12   4   19.81    3.57
   6 -12   4   20.75    3.42
  -6  12  -4   17.33    3.42
  -6  12  -4   19.73    3.20
   6 -12   3  121.46    6.41
   6 -12   3  123.28    5.68
  -6  12  -3  118.18    6.41
  -6  12  -3  117.23    2.91
  -6  12  -3   94.15    2.69
   6 -12   2   19.95    3.57
  -6  12  -2   22.57    3.64
  -6  12  -2   19.44    2.11
  -6  12  -2   18.28    1.89
   6 -12   1   11.65    2.99
   6 -12   1    9.83    2.77
  -6  12  -1   11.80    3.06
  -6  12  -1    8.52    1.82
  -6  12  -1    7.35    1.60
   6 -12   0   12.09    2.99
   6 -12   0   13.40    2.84
  -6  12   0   16.67    3.28
  -6  12   0   14.78    2.77
   6 -12  -1   83.08    5.68
   6 -12  -1   81.26    5.24
  -6  12   1   83.23    5.68
  -6  12   1   82.06    4.95
   6 -12  -2   62.48    5.10
   6 -12  -2   61.53    4.59
  -6  12   2   61.16    5.17
  -6  12   2   60.15    4.66
   6 -12  -3   37.14    4.44
   6 -12  -3   35.17    4.00
  -6  12   3   34.66    4.30
  -6  12   3   39.25    4.44
   6 -12  -4   16.46    3.42
   6 -12  -4   19.15    3.06
  -6  12   4   20.39    3.57
  -6  12   4   15.44    3.28
   6 -12  -5    6.84    1.60
   6 -12  -5    8.16    1.53
  -6  12   5    7.06    2.69
  -6  12   5    8.08    2.91
   6 -12  -6    5.32    1.24
   6 -12  -6    5.61    1.17
  -6  12   6    6.99    2.69
  -6  12   6    3.93    2.77
  -6  12   7   11.58    3.06
  -6  12   7   11.36    3.13
   6 -12  -8   35.24    4.88
  -6  12   8   32.91    4.15
  -6  12   8   36.04    4.73
   6 -12  -9   29.42    4.51
  -6  12   9   27.96    3.93
  -6  12   9   34.30    4.73
   6 -12 -10   17.11    4.15
  -6  12  10   11.72    3.50
   7 -12  11   61.31    5.97
  -7  12 -11   63.64    6.77
   7 -12  10   12.23    3.50
  -7  12 -10   12.38    3.50
  -7  12 -10    9.32    3.20
   7 -12   9  101.50    6.63
  -7  12  -9   88.83    6.19
  -7  12  -9   92.04    6.19
   7 -12   8    5.90    2.91
  -7  12  -8    9.25    2.91
  -7  12  -8   10.70    2.99
   7 -12   7    9.83    3.20
  -7  12  -7   13.40    3.28
  -7  12  -7    7.21    2.62
   7 -12   6  115.63    6.63
   7 -12   6  130.70    6.48
  -7  12  -6  124.44    6.48
  -7  12  -6  118.69    6.12
   7 -12   5  119.63    6.48
   7 -12   5  131.65    6.19
  -7  12  -5  130.78    6.70
  -7  12  -5  122.33    5.97
   7 -12   4  138.64    6.92
   7 -12   4  143.23    6.12
  -7  12  -4  141.62    6.84
  -7  12  -4  141.04    5.97
   7 -12   3   33.13    4.22
  -7  12  -3   37.86    4.66
  -7  12  -3   35.68    2.33
  -7  12  -3   29.20    2.04
   7 -12   2  192.09    7.72
  -7  12  -2  183.49    7.57
  -7  12  -2  178.61    4.73
  -7  12  -2  154.08    4.37
   7 -12   1    3.06    2.48
  -7  12  -1    3.86    2.55
  -7  12  -1    1.97    2.04
   7 -12   0   40.41    4.59
  -7  12   0   38.52    4.51
  -7  12   0   36.84    3.79
   7 -12  -1   -0.29    2.18
   7 -12  -1    0.80    2.04
  -7  12   1    2.04    2.33
  -7  12   1    0.22    1.89
   7 -12  -2   10.19    2.91
   7 -12  -2   11.07    2.62
  -7  12   2   12.23    3.06
  -7  12   2    8.88    2.55
   7 -12  -3    6.84    2.69
   7 -12  -3    9.32    2.55
  -7  12   3    8.30    2.91
  -7  12   3    9.17    2.69
   7 -12  -4   30.58    4.08
   7 -12  -4   24.83    2.48
   7 -12  -4   26.21    2.33
  -7  12   4   30.07    4.08
  -7  12   4   33.93    4.15
   7 -12  -5  174.54    7.72
   7 -12  -5  148.47    4.00
   7 -12  -5  143.30    3.86
  -7  12   5  173.15    7.50
  -7  12   5  171.33    7.50
  -7  12   6   55.05    5.10
  -7  12   6   53.08    5.32
  -7  12   7   18.06    3.50
  -7  12   7   22.06    3.93
   7 -12  -8   37.65    5.02
  -7  12   8   45.95    5.10
  -7  12   8   40.85    5.02
   7 -12  -9    5.32    3.20
  -7  12   9    4.08    2.69
  -7  12   9    5.39    2.99
   7 -12 -10   56.65    6.12
  -7  12  10   64.15    6.19
   8 -12  11    8.01    3.42
  -8  12 -11   10.63    4.66
   8 -12  10   69.25    6.19
  -8  12 -10   82.64    6.55
   8 -12   9  147.30    7.72
  -8  12  -9  151.75    7.65
   8 -12   8   10.70    3.35
  -8  12  -8    7.86    2.84
  -8  12  -8    7.65    2.99
   8 -12   7   36.55    4.73
  -8  12  -7   38.37    4.59
  -8  12  -7   33.28    4.30
   8 -12   6   36.70    4.66
  -8  12  -6   33.13    4.30
  -8  12  -6   39.90    4.37
   8 -12   5   21.41    3.71
  -8  12  -5   23.96    3.79
  -8  12  -5   22.65    3.35
   8 -12   4   20.46    3.71
  -8  12  -4   16.89    3.50
  -8  12  -4   14.49    1.67
  -8  12  -4   12.52    1.53
   8 -12   3   38.30    4.59
  -8  12  -3   32.18    4.22
  -8  12  -3   35.39    2.55
  -8  12  -3   27.89    2.18
   8 -12   2   92.40    5.97
  -8  12  -2  104.93    6.26
   8 -12   1   28.54    4.00
  -8  12  -1   29.71    4.08
   8 -12   0   19.37    3.64
  -8  12   0   18.86    3.57
   8 -12  -1    1.82    2.40
  -8  12   1    3.20    2.48
   8 -12  -2   27.01    4.15
  -8  12   2   24.68    3.86
   8 -12  -3   53.59    5.10
  -8  12   3   53.96    5.10
   8 -12  -4   25.34    4.08
   8 -12  -4   25.05    2.33
   8 -12  -4   23.08    2.11
  -8  12   4   25.63    3.86
   8 -12  -5   74.78    5.68
   8 -12  -5   64.22    2.48
   8 -12  -5   62.98    2.33
  -8  12   5   76.16    5.75
  -8  12   5   77.69    5.68
  -8  12   6   36.19    4.44
  -8  12   6   33.13    4.37
  -8  12   7    9.17    2.91
  -8  12   7    7.65    3.06
   8 -12  -8   28.76    4.59
  -8  12   8   35.97    4.51
  -8  12   8   31.89    4.66
   8 -12  -9   53.01    5.97
  -8  12   9   53.37    5.32
  -8  12   9   59.78    6.12
   8 -12 -10    3.35    3.20
  -8  12  10    2.62    3.20
   9 -12  10  102.45    7.14
  -9  12 -10   99.83    6.92
   9 -12   9   49.66    5.75
  -9  12  -9   55.19    5.53
   9 -12   8   21.19    4.08
  -9  12  -8   23.37    4.08
   9 -12   7   43.11    5.24
  -9  12  -7   41.72    4.81
  -9  12  -7   41.36    4.81
   9 -12   6   15.80    3.64
  -9  12  -6   15.15    3.35
  -9  12  -6   13.98    3.20
   9 -12   5   86.43    6.19
  -9  12  -5   99.25    6.12
   9 -12   4   80.68    5.83
  -9  12  -4   76.60    5.68
  -9  12  -4   78.42    3.13
  -9  12  -4   66.92    2.84
   9 -12   3   33.20    4.37
  -9  12  -3   34.15    4.44
  -9  12  -3   33.64    2.77
  -9  12  -3   27.89    2.33
   9 -12   2    7.50    2.84
  -9  12  -2    4.88    2.40
   9 -12   1  107.18    6.33
  -9  12  -1   96.99    6.12
   9 -12   0    8.16    2.91
  -9  12   0   11.94    3.13
   9 -12  -1   53.08    5.02
  -9  12   1   52.79    5.10
   9 -12  -2   78.86    5.75
  -9  12   2   78.86    5.83
   9 -12  -3   74.56    5.68
   9 -12  -3   70.48    3.28
   9 -12  -3   61.16    3.06
  -9  12   3   78.64    5.83
   9 -12  -4   14.71    3.28
   9 -12  -4   14.64    1.75
   9 -12  -4   11.00    1.53
  -9  12   4   13.40    3.20
   9 -12  -5   65.53    5.53
  -9  12   5   61.09    5.32
   9 -12  -6    3.20    2.62
  -9  12   6    6.55    2.62
  -9  12   7   15.00    3.42
  -9  12   7   18.06    3.64
  -9  12   7   14.42    3.57
   9 -12  -8    6.33    3.20
  -9  12   8   10.78    3.20
  -9  12   8   11.80    3.42
   9 -12  -9   15.51    4.00
  -9  12   9   13.98    3.64
  -9  12   9   15.87    3.71
   9 -12 -10   14.20    5.17
 -10  12 -10    9.47    3.50
  10 -12   9   21.99    4.22
 -10  12  -9   31.02    4.66
  10 -12   8   31.67    4.81
 -10  12  -8   34.15    4.51
  10 -12   7   -0.07    2.55
 -10  12  -7    0.00    2.33
 -10  12  -7    2.11    2.69
  10 -12   6    7.21    3.20
 -10  12  -6    9.10    2.99
  10 -12   5   22.86    4.08
 -10  12  -5   25.34    3.93
 -10  12  -5   23.59    1.97
  10 -12   4   60.51    5.61
 -10  12  -4   61.02    5.46
 -10  12  -4   61.09    3.20
 -10  12  -4   52.21    2.84
  10 -12   3   28.47    4.22
 -10  12  -3   32.91    4.37
  10 -12   2   36.70    4.81
 -10  12  -2   28.62    4.22
  10 -12   1  174.90    7.79
 -10  12  -1  183.20    8.01
  10 -12   0   11.80    3.35
 -10  12   0   15.58    3.50
  10 -12  -1   34.00    4.37
 -10  12   1   36.77    4.81
  10 -12  -2   10.85    3.20
  10 -12  -2   11.07    2.11
 -10  12   2    8.23    3.13
  10 -12  -3   14.93    3.42
  10 -12  -3   12.60    1.82
  10 -12  -3   13.98    1.89
 -10  12   3   18.49    3.79
  10 -12  -4   26.87    4.22
 -10  12   4   25.92    4.15
  10 -12  -5   19.81    3.71
 -10  12   5   28.76    4.37
  10 -12  -6    6.70    2.99
 -10  12   6    4.15    2.84
  10 -12  -7   10.27    3.13
 -10  12   7    9.90    3.42
 -10  12   7    8.30    3.13
  10 -12  -8   17.84    3.93
 -10  12   8   19.59    3.86
 -10  12   8   19.73    3.86
  10 -12  -9   31.09    4.81
 -10  12   9   33.13    4.30
 -10  12   9   31.75    4.73
 -10  12   9   30.22    7.65
 -10  12  10   17.26    4.22
 -11  12  -9   29.27    4.73
  11 -12   8   15.51    4.37
  11 -12   7   82.94    6.55
 -11  12  -7   78.86    5.68
  11 -12   6   15.58    3.79
 -11  12  -6   20.10    3.86
  11 -12   5   56.50    5.75
 -11  12  -5   53.52    5.32
 -11  12  -5   55.48    2.84
  11 -12   4   18.93    4.00
 -11  12  -4   15.80    3.64
  11 -12   3   36.77    4.81
 -11  12  -3   44.27    5.17
  11 -12   2   32.48    4.51
 -11  12  -2   33.49    4.66
  11 -12   1   38.37    4.81
 -11  12  -1   47.48    5.39
  11 -12   0  121.38    6.92
 -11  12   0  114.03    6.99
  11 -12  -1   35.10    4.59
 -11  12   1   35.61    4.73
  11 -12  -2    9.68    3.20
  11 -12  -2    8.66    1.75
  11 -12  -2    9.32    1.75
 -11  12   2   12.23    3.42
  11 -12  -3  220.77    8.59
  11 -12  -3  216.26    4.22
  11 -12  -3  184.00    3.86
 -11  12   3  234.68    9.25
  11 -12  -4   50.32    5.32
 -11  12   4   53.23    5.68
  11 -12  -5   -1.02    2.18
 -11  12   5    2.33    2.84
  11 -12  -6    5.32    2.84
 -11  12   6    3.42    2.99
  11 -12  -7   70.27    5.97
  11 -12  -7   78.57    6.26
 -11  12   7   65.68    6.12
 -11  12   7   74.13    6.41
  11 -12  -8   28.54    4.51
  11 -12  -8   38.45    5.10
 -11  12   8   34.37    4.73
 -11  12   8   42.31    5.17
  11 -12  -9   96.99   11.21
  11 -12  -9  106.53    7.43
 -11  12   9  117.38    7.43
 -11  12   9  109.88    7.06
 -12  12  -7   14.05    3.64
  12 -12   6   66.55    6.33
 -12  12  -6   72.81    6.04
  12 -12   5   30.00    4.66
 -12  12  -5   26.21    4.30
 -12  12  -5   30.22    2.62
  12 -12   4    3.71    2.99
 -12  12  -4    2.55    2.77
  12 -12   3   16.46    3.86
 -12  12  -3   23.81    4.15
  12 -12   2   29.56    4.51
 -12  12  -2   25.34    4.22
  12 -12   1    9.54    3.42
 -12  12  -1    8.23    3.42
  12 -12   0   50.53    5.53
 -12  12   0   56.50    5.83
  12 -12  -1  132.81    7.28
  12 -12  -1  117.38    4.37
  12 -12  -1  109.80    4.15
 -12  12   1  128.66    7.50
  12 -12  -2    9.83    3.28
  12 -12  -2   12.67    1.75
  12 -12  -2    8.96    1.60
 -12  12   2   10.12    3.42
  12 -12  -3    8.45    3.13
 -12  12   3    7.50    3.28
  12 -12  -4   19.22    3.79
 -12  12   4   16.46    3.79
  12 -12  -5   43.40    5.10
 -12  12   5   48.64    5.75
  12 -12  -6   58.18    5.46
 -12  12   6   49.37    5.83
  12 -12  -7   62.40    5.75
  12 -12  -7   73.18    6.33
 -12  12   7   66.19    6.41
 -12  12   7   59.78    6.70
  12 -12  -8   17.62    4.30
  12 -12  -8   20.68    4.22
 -12  12   8   15.51    4.59
 -12  12   8   17.18    4.08
 -13  12  -6    6.12    3.20
 -13  12  -6    3.71    1.38
 -13  12  -6    5.53    1.60
 -13  12  -5    9.17    3.28
  13 -12   4   17.40    4.15
 -13  12  -4   14.13    3.79
  13 -12   3    6.70    3.35
 -13  12  -3    7.79    3.50
  13 -12   2    1.89    2.77
 -13  12  -2    3.71    3.13
  13 -12   1    9.39    3.28
 -13  12  -1   11.14    3.71
  13 -12   0   58.91    5.83
 -13  12   0   57.09    6.26
  13 -12  -1    6.77    3.20
  13 -12  -1    8.23    1.67
  13 -12  -1    5.32    1.60
 -13  12   1    8.81    3.57
  13 -12  -2    7.57    3.13
 -13  12   2    5.61    3.35
  13 -12  -3   68.88    5.83
 -13  12   3   73.25    6.70
  13 -12  -4    4.59    2.91
 -13  12   4    7.35    3.57
  13 -12  -5   10.12    3.42
 -13  12   5    8.37    5.61
  13 -12  -7    1.09    3.71
  14 -12   1   27.23    4.66
  14 -12   0    4.00    2.99
  14 -12   0    3.86    1.53
  14 -12   0    4.30    1.67
  14 -12  -1   11.72    3.57
  14 -12  -2    2.11    2.84
  14 -12  -3   52.50    5.53
   0  13  -1    4.30    2.91
   0  13   0   53.01    5.61
   0  13   1   56.58    5.61
   0  13   2   18.42    3.79
   0  13   2   15.07    1.82
   0  13   2   15.51    1.82
   0  13   3   23.45    4.08
   0  13   3   14.27    2.48
   0  13   3   19.08    2.26
   0  13   5    0.51    2.55
   1 -13   4    5.97    3.79
  -1  13  -4    3.79    3.13
   1 -13   3   69.32    6.63
  -1  13  -3   63.64    6.12
   1 -13   2    3.93    3.20
  -1  13  -2    4.81    2.91
   1 -13   1   11.94    3.64
  -1  13  -1    5.53    2.99
   1 -13   0   52.21    5.83
  -1  13   0   44.13    5.24
   1 -13  -1   10.27    3.42
  -1  13   1    9.17    3.20
  -1  13   1    6.84    1.24
  -1  13   1    7.14    1.24
   1 -13  -2    3.50    2.69
  -1  13   2    2.69    2.55
  -1  13   2    2.18    1.24
  -1  13   2    2.84    1.38
   1 -13  -3    9.83    3.28
  -1  13   3    7.21    2.84
   1 -13  -4   15.44    3.64
  -1  13   4   14.34    3.35
  -1  13   4   16.31    3.64
   1 -13  -5    9.47    3.06
  -1  13   5   11.29    3.28
   1 -13  -6    3.64    2.77
  -1  13   6    4.73    2.91
   2 -13   6   11.65    4.22
  -2  13  -6   15.87    4.51
   2 -13   5   86.65    6.99
  -2  13  -5   71.29    6.33
   2 -13   4   21.63    4.37
  -2  13  -4   21.41    4.15
   2 -13   3   44.85    5.53
  -2  13  -3   53.15    5.68
   2 -13   2    6.63    3.28
  -2  13  -2    1.60    2.62
   2 -13   1   25.19    4.59
  -2  13  -1   20.61    3.93
   2 -13   0   25.92    4.44
  -2  13   0   28.62    4.51
   2 -13  -1   17.40    3.86
  -2  13   1   13.76    3.42
  -2  13   1   12.09    1.67
   2 -13  -2    0.73    2.69
  -2  13   2   -0.44    2.33
   2 -13  -3   38.45    4.88
  -2  13   3   42.16    4.73
  -2  13   3   31.09    4.44
   2 -13  -4   29.42    4.44
  -2  13   4   30.07    4.37
  -2  13   4   23.23    3.93
   2 -13  -5   27.09    4.22
   2 -13  -5   27.23    4.22
  -2  13   5   24.61    4.08
  -2  13   5   25.99    4.08
   2 -13  -6    5.90    2.84
   2 -13  -6    4.95    2.84
  -2  13   6    5.68    2.99
   2 -13  -7   15.66    3.42
  -2  13   7   18.71    4.00
   2 -13  -8   10.78    3.42
   3 -13   7   31.67    5.10
  -3  13  -7   25.34    4.51
   3 -13   6   27.82    4.73
  -3  13  -6   17.62    4.00
   3 -13   5   10.12    3.71
  -3  13  -5   11.43    3.57
   3 -13   4    5.97    2.99
   3 -13   4    9.90    3.71
  -3  13  -4   13.18    3.42
   3 -13   3    2.91    2.40
   3 -13   3    1.75    2.91
  -3  13  -3    1.53    2.62
   3 -13   2  123.13    6.55
   3 -13   2  119.93    7.21
  -3  13  -2  114.39    6.92
   3 -13   1    3.42    2.77
  -3  13  -1    4.66    2.69
   3 -13   0    4.73    2.91
  -3  13   0    5.10    2.77
  -3  13   0    2.40    1.02
   3 -13  -1   62.98    5.61
  -3  13   1   56.80    3.20
  -3  13   1   44.64    2.84
   3 -13  -2   21.84    4.00
   3 -13  -3   48.06    5.32
  -3  13   3   43.54    4.81
   3 -13  -4   29.71    4.15
  -3  13   4   27.52    4.15
   3 -13  -5   72.81    5.61
   3 -13  -5   71.21    5.68
  -3  13   5   82.21    5.97
   3 -13  -6    1.31    2.69
  -3  13   6    3.35    2.69
   3 -13  -7    3.42    2.84
   3 -13  -7    1.46    1.31
   3 -13  -7    1.24    1.17
  -3  13   7    1.60    2.62
   3 -13  -8   33.20    4.66
  -3  13   8   40.41    8.23
   4 -13   8    7.94    3.50
   4 -13   8    9.68    3.71
  -4  13  -8    6.04    3.20
   4 -13   7   11.58    3.64
  -4  13  -7   12.16    3.64
   4 -13   6   54.32    5.90
  -4  13  -6   46.82    5.46
   4 -13   5   23.81    3.86
   4 -13   5   20.02    4.00
  -4  13  -5   22.57    4.15
   4 -13   4    5.68    2.77
   4 -13   4    6.63    3.20
  -4  13  -4    5.24    2.91
   4 -13   3   14.93    3.28
   4 -13   3   22.72    4.22
  -4  13  -3   23.37    4.08
   4 -13   2   24.25    3.86
   4 -13   2   24.32    4.15
   4 -13   1   44.20    4.95
   4 -13   1   44.85    5.24
  -4  13  -1   36.12    2.04
   4 -13   0   65.24    5.46
   4 -13   0   57.16    5.39
  -4  13   0   55.70    3.06
  -4  13   0   51.19    2.77
   4 -13  -1   44.49    5.10
   4 -13  -2   10.78    3.13
  -4  13   2   10.49    2.99
   4 -13  -3  136.53    7.06
  -4  13   3  130.92    6.63
   4 -13  -4   97.64    6.19
  -4  13   4   91.31    6.04
   4 -13  -5   16.60    3.28
  -4  13   5   17.33    3.64
   4 -13  -6    6.33    2.84
  -4  13   6    5.75    3.06
   4 -13  -7   10.27    3.35
   4 -13  -7    6.70    1.46
   4 -13  -7    7.35    1.38
  -4  13   7   10.27    3.42
   4 -13  -8   12.31    3.50
  -4  13   8    8.59    3.35
   5 -13   9   12.16    3.86
  -5  13  -9    8.01    3.50
  -5  13  -9   11.00    3.57
   5 -13   8   31.75    4.81
   5 -13   8   29.71    4.66
  -5  13  -8   30.22    4.59
   5 -13   7   13.91    3.42
   5 -13   7   20.02    4.15
   5 -13   7   12.09    3.71
  -5  13  -7   10.05    3.35
   5 -13   6   51.26    5.24
   5 -13   6   44.85    5.17
   5 -13   6   46.24    5.53
  -5  13  -6   42.60    5.32
   5 -13   5   66.77    5.68
   5 -13   5   63.28    5.83
  -5  13  -5   58.76    5.61
   5 -13   4   17.69    3.50
   5 -13   4   22.43    4.08
   5 -13   3   -0.07    2.33
   5 -13   3    7.28    2.99
   5 -13   2   23.52    3.86
   5 -13   2   26.36    4.08
   5 -13   1   64.59    5.53
   5 -13   1   72.67    5.75
  -5  13  -1   63.93    2.99
  -5  13  -1   55.27    2.69
   5 -13   0   10.49    3.20
   5 -13   0   12.16    3.28
  -5  13   0   10.27    1.97
   5 -13  -1   58.83    5.32
   5 -13  -1   55.48    5.10
  -5  13   1   54.47    6.77
   5 -13  -2    3.20    2.77
   5 -13  -2    1.97    2.55
  -5  13   2    3.57    2.40
   5 -13  -3   75.07    5.53
  -5  13   3   70.48    5.46
   5 -13  -4   25.19    3.86
  -5  13   4   24.61    3.86
  -5  13   5   23.96    3.86
   5 -13  -6    1.82    1.31
   5 -13  -6    1.82    1.17
  -5  13   6    2.04    2.48
   5 -13  -7    2.40    2.77
  -5  13   7    0.44    2.55
   5 -13  -8    4.08    3.06
  -5  13   8    5.61    3.06
  -6  13 -10   52.35    5.97
   6 -13   9   22.06    4.37
   6 -13   9   28.91    4.88
  -6  13  -9   21.33    4.44
  -6  13  -9   21.55    4.15
   6 -13   8   -1.24    2.55
   6 -13   8    1.38    2.99
  -6  13  -8    0.15    2.77
  -6  13  -8    1.89    2.77
   6 -13   7   43.32    5.02
   6 -13   7   38.30    4.88
  -6  13  -7   37.35    4.66
  -6  13  -7   42.01    5.17
   6 -13   6   30.51    4.44
   6 -13   6   36.55    4.81
  -6  13  -6   32.77    4.51
   6 -13   5   79.81    6.04
   6 -13   5   80.82    5.68
   6 -13   4   51.04    5.39
   6 -13   3    4.22    2.91
   6 -13   3    6.48    2.84
  -6  13  -3    3.06    2.77
   6 -13   2   37.35    4.66
   6 -13   2   39.68    4.88
  -6  13  -2   40.41    4.88
  -6  13  -2   38.23    2.40
  -6  13  -2   30.07    2.04
   6 -13   1    1.38    2.55
   6 -13   1   -0.07    2.26
  -6  13  -1    3.35    2.69
  -6  13  -1    0.07    1.17
  -6  13  -1    1.09    1.09
   6 -13   0   58.11    5.39
   6 -13   0   56.50    5.24
  -6  13   0   58.98    5.53
   6 -13  -1   87.52    6.26
   6 -13  -1   93.93    5.83
  -6  13   1   80.82    6.04
  -6  13   1   86.50    5.39
   6 -13  -2   40.92    4.95
   6 -13  -2   39.39    4.66
  -6  13   2   34.95    4.59
  -6  13   2   40.05    4.44
   6 -13  -3    6.26    2.99
   6 -13  -3    6.63    2.69
  -6  13   3    7.28    2.99
  -6  13   3    6.99    2.77
  -6  13   4   63.20    5.61
  -6  13   4   71.07    5.53
   6 -13  -5   -1.17    1.17
   6 -13  -5   -0.73    1.09
  -6  13   5   -0.29    2.33
  -6  13   5   -3.50    2.11
   6 -13  -6   12.52    1.75
   6 -13  -6   10.85    1.53
  -6  13   6   11.87    3.28
  -6  13   6   11.58    3.28
   6 -13  -7    5.10    2.99
  -6  13   7    4.00    2.69
  -6  13   7    6.41    3.13
   6 -13  -8    1.53    3.06
  -6  13   8    5.97    3.13
  -6  13   9    4.88    5.17
   7 -13  10   25.99    4.37
  -7  13 -10   28.91    4.51
   7 -13   9    8.30    3.35
   7 -13   9   12.09    3.79
  -7  13  -9   10.56    3.50
  -7  13  -9   10.92    3.28
   7 -13   8   83.59    6.41
   7 -13   8   96.12    6.77
  -7  13  -8   83.52    6.33
  -7  13  -8   78.64    6.26
   7 -13   7  101.50    6.77
   7 -13   7  110.39    6.84
  -7  13  -7  106.16    6.55
   7 -13   6   15.44    3.71
   7 -13   6   22.72    4.00
  -7  13  -6   21.77    3.86
  -7  13  -6   20.02    3.71
   7 -13   5   64.66    5.68
  -7  13  -5   71.72    5.90
  -7  13  -5   71.65    7.06
   7 -13   4   33.57    4.51
  -7  13  -4   29.34    4.30
   7 -13   3  107.55    6.63
  -7  13  -3  111.19    6.77
  -7  13  -3   84.61    2.69
   7 -13   2   51.19    5.39
  -7  13  -2   57.23    5.53
  -7  13  -2   54.39    2.91
  -7  13  -2   43.83    2.55
   7 -13   1    4.73    2.84
   7 -13   1    8.74    2.91
  -7  13  -1    8.23    2.91
   7 -13   0   31.24    4.30
   7 -13   0   41.36    4.51
  -7  13   0   44.05    5.24
   7 -13  -1   11.21    3.28
   7 -13  -1   14.20    3.13
  -7  13   1   12.96    3.50
  -7  13   1    9.76    2.84
   7 -13  -2   19.15    3.86
   7 -13  -2   17.11    3.28
  -7  13   2   20.17    3.93
  -7  13   2   16.31    3.28
   7 -13  -3   20.61    3.79
   7 -13  -3   21.84    3.50
  -7  13   3   22.57    3.93
  -7  13   3   20.75    3.64
   7 -13  -4   33.57    4.66
  -7  13   4   33.42    4.51
  -7  13   4   40.27    4.88
   7 -13  -5   25.85    2.33
   7 -13  -5   22.43    2.18
  -7  13   5   27.23    4.15
  -7  13   5   29.42    4.30
  -7  13   6   16.24    3.57
  -7  13   6   14.42    3.64
  -7  13   7    9.03    3.13
  -7  13   7   11.21    3.42
   7 -13  -8   14.13    4.00
  -7  13   8   17.26    3.71
  -7  13   8   19.95    4.22
  -7  13   9    6.84    2.99
   8 -13   9   22.72    4.37
  -8  13  -9   25.27    4.30
  -8  13  -9   19.08    4.00
   8 -13   8   12.45    3.57
   8 -13   8   13.91    3.71
  -8  13  -8   10.12    4.81
  -8  13  -8    8.23    3.13
   8 -13   7   31.16    4.59
   8 -13   7   35.39    4.81
  -8  13  -7   30.87    4.44
  -8  13  -7   31.24    4.30
   8 -13   6    8.52    3.20
  -8  13  -6    7.72    3.06
   8 -13   5    5.02    2.99
  -8  13  -5    1.67    2.62
   8 -13   4    8.45    3.06
  -8  13  -4   10.34    3.06
   8 -13   3  178.91    8.01
  -8  13  -3  168.20    7.86
  -8  13  -3  175.27    4.30
  -8  13  -3  140.31    3.86
   8 -13   2   21.12    3.93
  -8  13  -2   18.64    3.86
  -8  13  -2   21.33    2.48
  -8  13  -2   14.56    1.97
   8 -13   1   12.82    3.42
  -8  13  -1    9.90    3.28
   8 -13   0   10.70    3.13
  -8  13   0   10.12    3.28
  -8  13   0   14.56    3.13
   8 -13  -1   30.80    4.37
   8 -13  -1   38.59    4.22
  -8  13   1   32.99    4.59
  -8  13   1   31.31    4.00
   8 -13  -2   87.09    6.12
   8 -13  -2   93.86    5.61
  -8  13   2   84.32    6.19
  -8  13   2   88.62    5.75
   8 -13  -3   29.71    4.44
  -8  13   3   24.47    4.15
  -8  13   3   26.29    3.86
   8 -13  -4   25.85    4.08
   8 -13  -4   26.43    2.48
   8 -13  -4   26.29    2.40
  -8  13   4   28.11    4.22
  -8  13   4   28.54    4.08
   8 -13  -5    8.81    3.28
   8 -13  -5    9.17    1.53
   8 -13  -5    7.50    1.31
  -8  13   5    7.35    3.06
  -8  13   5    7.35    2.91
  -8  13   6   60.22    5.75
  -8  13   6   57.96    5.61
  -8  13   7   11.80    3.35
  -8  13   7   13.83    3.57
   8 -13  -8   11.43    3.86
  -8  13   8   15.15    3.57
  -8  13   8   18.57    4.00
  -8  13   9   68.74    6.04
  -9  13  -9    9.39    3.42
   9 -13   8   23.59    4.51
  -9  13  -8   22.72    4.15
   9 -13   7    5.68    3.20
  -9  13  -7    5.61    2.91
   9 -13   6   28.91    4.51
  -9  13  -6   31.02    4.44
   9 -13   5    0.29    2.55
  -9  13  -5    0.51    2.55
   9 -13   4   10.12    3.28
  -9  13  -4   15.00    3.50
  -9  13  -4    7.35    1.24
   9 -13   3   21.26    3.93
  -9  13  -3   25.27    4.00
  -9  13  -3   24.98    2.48
  -9  13  -3   19.81    2.11
   9 -13   2   12.16    3.35
  -9  13  -2   12.09    3.42
   9 -13   1   39.61    4.95
  -9  13  -1   33.28    4.59
   9 -13   0   47.18    5.17
  -9  13   0   45.22    5.39
   9 -13  -1   14.49    3.50
  -9  13   1   14.05    3.57
   9 -13  -2   15.15    3.64
  -9  13   2   16.09    3.79
   9 -13  -3    7.72    3.13
  -9  13   3    1.09    2.69
   9 -13  -4   -2.62    2.33
   9 -13  -4    0.07    1.17
   9 -13  -4   -1.38    0.95
  -9  13   4    0.15    2.62
   9 -13  -5    9.10    3.35
  -9  13   5    8.23    3.35
  -9  13   5    8.59    3.13
  -9  13   6   13.40    3.50
  -9  13   6   17.33    3.79
  -9  13   7   13.40    3.50
  -9  13   7   14.42    3.64
   9 -13  -8   -1.31    3.28
  -9  13   8    2.26    2.84
  -9  13   8    1.97    3.28
  -9  13   9   64.81    6.19
 -10  13  -9    1.31    2.84
  10 -13   7   50.68    6.04
 -10  13  -7   58.54    5.68
  10 -13   6    6.26    3.20
 -10  13  -6    4.73    2.99
  10 -13   5    2.77    2.84
 -10  13  -5    0.00    2.48
  10 -13   4   20.83    3.93
 -10  13  -4   18.57    3.86
 -10  13  -4   23.96    2.26
 -10  13  -4   17.33    1.89
  10 -13   3   15.15    3.71
 -10  13  -3   13.18    3.42
 -10  13  -3   13.54    2.99
  10 -13   2   19.73    4.08
 -10  13  -2   15.58    3.79
  10 -13   1   71.87    6.04
 -10  13  -1   62.69    5.83
  10 -13   0    6.33    3.06
 -10  13   0    7.65    2.99
  10 -13  -1   -1.02    2.55
 -10  13   1    2.40    2.77
  10 -13  -2   18.20    3.93
 -10  13   2   19.81    4.00
  10 -13  -3   23.16    4.30
  10 -13  -3   24.61    2.40
  10 -13  -3   19.30    2.26
 -10  13   3   24.83    4.15
  10 -13  -4   34.88    4.88
  10 -13  -4   27.67    1.89
 -10  13   4   31.24    4.44
  10 -13  -5    0.29    2.77
 -10  13   5    2.04    2.69
  10 -13  -6   83.81    6.55
 -10  13   6   84.54    6.55
 -10  13   7   13.40    3.57
 -10  13   7   10.92    3.57
 -10  13   8   62.33    6.19
 -10  13   9   60.87    6.41
 -11  13  -7    1.60    2.77
  11 -13   6   13.76    4.30
 -11  13  -6   12.45    3.42
  11 -13   5    6.63    3.35
 -11  13  -5    6.48    2.99
  11 -13   4    2.18    2.84
 -11  13  -4    2.99    2.48
 -11  13  -4    0.73    1.38
 -11  13  -4    1.82    1.24
  11 -13   3    3.13    2.91
 -11  13  -3    7.57    3.13
  11 -13   2    8.37    3.35
 -11  13  -2    9.61    3.50
  11 -13   1   76.24    6.26
 -11  13  -1   81.33    6.63
  11 -13   0   77.55    6.41
 -11  13   0   78.71    6.55
  11 -13  -1   10.41    3.57
 -11  13   1   10.27    3.50
  11 -13  -2    1.89    2.77
  11 -13  -2    4.81    1.67
  11 -13  -2    5.10    1.60
 -11  13   2    3.28    3.06
  11 -13  -3   36.12    5.17
  11 -13  -3   35.10    2.40
  11 -13  -3   31.60    2.18
 -11  13   3   40.12    5.17
  11 -13  -4   15.95    3.93
 -11  13   4   14.49    3.86
  11 -13  -5    6.84    3.20
 -11  13   5    9.25    3.57
  11 -13  -6   56.58    5.83
 -11  13   6   60.95    6.33
 -11  13   7   26.43    4.66
 -12  13  -7    6.84    3.28
 -12  13  -6    3.50    2.62
 -12  13  -5   28.98    4.73
 -12  13  -5   24.76    2.33
  12 -13   4   27.38    5.10
 -12  13  -4   28.76    4.66
  12 -13   3   11.94    3.64
 -12  13  -3   12.45    3.64
  12 -13   2   29.13    4.51
 -12  13  -2   28.62    4.66
  12 -13   1   80.61    6.63
 -12  13  -1   76.31    6.55
  12 -13   0   67.43    6.19
 -12  13   0   66.70    6.41
  12 -13  -1   16.24    3.71
 -12  13   1   22.94    4.30
  12 -13  -2  124.88    7.43
  12 -13  -2  100.12    3.64
  12 -13  -2   98.30    3.57
 -12  13   2  114.54    7.57
  12 -13  -3   22.06    4.22
 -12  13   3   21.33    4.37
  12 -13  -4    5.68    3.20
 -12  13   4    8.45    3.71
  12 -13  -5   32.40    4.88
 -12  13   5   31.89    6.70
  12 -13  -6    8.23    3.35
 -13  13  -5    1.67    1.82
  13 -13   1   59.20    7.21
  13 -13   0   54.39    6.19
  13 -13  -1    5.53    3.13
  13 -13  -1    6.33    1.75
  13 -13  -1    5.68    1.67
  13 -13  -2   16.24    3.86
  13 -13  -3    3.93    3.06
  13 -13  -4    1.75    3.20
  14 -13   0    2.62    1.75
  14 -13   0    2.62    1.75
  -2  14   0    3.57    3.50
  -2  14   1   18.86    4.15
  -2  14   2    2.84    2.77
  -2  14   2    1.97    1.24
  -2  14   2    1.60    1.31
   2 -14  -3   13.03    4.66
  -2  14   3   10.70    3.35
  -2  14   4    2.26    2.55
  -3  14  -3   10.19    5.24
   3 -14   2   28.69    4.81
  -3  14  -2   29.05    4.73
   3 -14   1   13.54    3.93
  -3  14  -1   13.11    3.64
   3 -14   0   13.54    3.93
  -3  14   0    9.90    3.35
   3 -14  -1    2.11    2.99
  -3  14   1    1.31    2.62
  -3  14   1    2.26    1.17
   3 -14  -2    4.59    3.13
  -3  14   2    0.07    2.69
   3 -14  -3   50.24    5.46
  -3  14   3   37.28    4.88
   3 -14  -4    3.50    2.69
  -3  14   4    3.79    2.84
  -3  14   4    4.73    2.77
   3 -14  -5  106.46    6.99
   3 -14  -5  106.09    6.92
  -3  14   5  108.06    7.06
  -3  14   5  105.14    6.77
   3 -14  -6   13.98    5.83
   4 -14   4    7.72    3.20
   4 -14   4    7.43    3.79
  -4  14  -4    7.21    3.50
   4 -14   3    0.87    2.62
   4 -14   3    6.33    3.42
  -4  14  -3    4.66    3.06
   4 -14   2   31.31    4.37
   4 -14   2   35.32    5.02
  -4  14  -2   32.77    4.81
   4 -14   1    6.26    3.06
   4 -14   1    7.35    3.35
  -4  14  -1    4.00    2.91
   4 -14   0  114.10    7.21
  -4  14   0   81.12    3.06
   4 -14  -1   11.14    3.57
  -4  14   1    9.32    1.89
   4 -14  -2   15.15    3.71
   4 -14  -3   17.33    3.86
   4 -14  -4   34.37    4.66
  -4  14   4   41.50    5.10
  -4  14   5   37.21    4.95
   4 -14  -6  119.85    7.94
  -4  14   6  122.91    7.50
   5 -14   6   40.56    6.92
   5 -14   5    8.23    3.20
   5 -14   5    8.66    3.71
  -5  14  -5   19.08    4.30
   5 -14   4   79.08    6.33
   5 -14   4   77.47    6.63
  -5  14  -4   72.60    6.41
   5 -14   3    3.50    2.84
   5 -14   3    3.35    3.13
  -5  14  -3    3.86    2.84
   5 -14   2    1.31    2.62
   5 -14   2    2.48    2.99
   5 -14   1   13.54    3.50
   5 -14   1   11.72    3.64
  -5  14  -1   10.49    1.46
   5 -14   0    1.97    2.62
   5 -14   0    0.51    2.62
  -5  14   0    0.07    1.24
  -5  14   0    0.80    1.09
   5 -14  -1   45.73    5.46
   5 -14  -1   45.44    5.24
   5 -14  -2   49.00    5.32
   5 -14  -3    1.53    2.62
  -5  14   3    0.58    2.40
   5 -14  -4   74.34    6.48
  -5  14   4   79.95    6.04
  -5  14   5   10.70    3.42
   5 -14  -6   27.60    4.51
   5 -14  -6   24.17    2.55
   5 -14  -6   25.12    2.40
  -5  14   6   31.67    4.73
   6 -14   8   79.88    8.52
   6 -14   7   54.98    5.97
   6 -14   7   50.61    5.68
   6 -14   6   25.27    4.44
   6 -14   6   25.78    6.12
   6 -14   6   26.65    6.04
  -6  14  -6   22.43    4.30
   6 -14   5    6.99    3.35
   6 -14   5    4.22    3.20
  -6  14  -5    3.93    3.20
   6 -14   4   19.73    4.00
   6 -14   4   17.55    4.00
   6 -14   3   18.13    3.79
   6 -14   3   22.94    4.37
   6 -14   2   12.09    3.50
   6 -14   2   13.47    3.50
   6 -14   1    3.50    2.84
   6 -14   1    5.32    3.06
  -6  14  -1    6.77    1.60
  -6  14  -1    5.39    1.38
   6 -14   0    7.35    3.20
   6 -14   0   10.05    3.35
   6 -14  -1    3.64    2.91
   6 -14  -1    1.46    2.55
   6 -14  -2   49.73    5.68
   6 -14  -2   50.32    5.24
   6 -14  -3   21.77    3.86
  -6  14   3   22.65    3.93
  -6  14   4   31.75    4.44
  -6  14   5   93.64    6.63
   6 -14  -6   30.73    2.48
   6 -14  -6   27.23    2.18
  -6  14   6   33.86    4.73
   7 -14   8   11.29    3.64
   7 -14   8   11.50    3.93
  -7  14  -8   11.94    3.71
   7 -14   7  109.51    7.28
  -7  14  -7  113.45    8.88
  -7  14  -7  104.49    8.01
   7 -14   6    5.46    3.28
   7 -14   5   72.16    6.33
   7 -14   4   53.66    5.90
   7 -14   4   54.32    5.75
   7 -14   3   -0.15    2.69
   7 -14   3    1.89    2.69
  -7  14  -3    1.67    2.84
   7 -14   2    2.18    2.91
   7 -14   2    4.51    2.84
  -7  14  -2    2.55    3.06
  -7  14  -2    4.44    1.38
  -7  14  -2    1.60    1.02
   7 -14   1   98.74    6.84
   7 -14   1  100.85    6.48
  -7  14  -1   90.14    6.77
  -7  14  -1   86.72    3.79
  -7  14  -1   71.65    3.35
   7 -14   0   20.53    4.15
   7 -14   0   20.53    3.86
  -7  14   0   18.35    4.00
   7 -14  -1   -1.38    2.62
   7 -14  -1    3.86    2.77
  -7  14   1    2.40    2.77
   7 -14  -2   80.46    6.48
   7 -14  -2   85.05    5.97
  -7  14   2   82.14    6.48
  -7  14   2   77.98    5.68
   7 -14  -3   15.29    3.79
  -7  14   3    9.83    3.50
  -7  14   3   14.13    3.35
  -7  14   4    9.17    3.42
  -7  14   4    9.54    3.28
   7 -14  -5   61.67    3.28
   7 -14  -5   51.48    2.91
  -7  14   5   64.44    6.04
  -7  14   5   76.24    6.26
  -7  14   6    7.79    3.28
  -7  14   6   10.19    3.50
  -7  14   7   61.89    6.04
   8 -14   7   21.99    4.44
   8 -14   6    5.53    3.28
  -8  14  -6    8.23    3.28
   8 -14   5   36.41    5.02
  -8  14  -5   37.06    4.95
   8 -14   4    8.66    3.42
  -8  14  -4   13.18    3.57
   8 -14   3   74.71    6.41
  -8  14  -3   88.11    6.63
   8 -14   2   33.35    4.88
  -8  14  -2   32.69    4.81
  -8  14  -2   32.62    2.62
  -8  14  -2   28.32    2.33
   8 -14   1    5.10    3.13
   8 -14   1    4.37    2.77
  -8  14  -1    3.13    3.06
   8 -14   0   76.38    6.33
   8 -14   0   77.62    5.75
  -8  14   0   80.97    6.63
   8 -14  -1    2.91    2.91
   8 -14  -1    1.67    2.69
  -8  14   1    6.70    3.20
   8 -14  -2    8.88    3.50
   8 -14  -2   10.34    3.93
  -8  14   2   11.21    3.64
  -8  14   2    7.86    3.06
   8 -14  -3   26.65    4.59
  -8  14   3   27.96    4.59
  -8  14   3   31.24    4.37
   8 -14  -4   23.30    4.59
  -8  14   4   20.61    4.08
  -8  14   4   17.40    3.79
   8 -14  -5    0.22    1.17
   8 -14  -5    1.38    1.09
  -8  14   5    0.66    2.77
  -8  14   5    0.44    2.77
  -8  14   6   47.69    5.75
  -8  14   6   38.74    5.17
  -8  14   7   13.76    3.79
  -8  14   8   24.47    5.53
  -9  14  -7   11.21    3.57
   9 -14   6   21.70    4.73
  -9  14  -6   24.10    4.30
   9 -14   5   16.67    4.00
  -9  14  -5   13.69    3.79
   9 -14   4   13.47    3.86
  -9  14  -4   14.78    3.71
   9 -14   3   21.33    4.30
  -9  14  -3   21.63    4.15
  -9  14  -3   19.59    2.18
  -9  14  -3   18.79    1.97
   9 -14   2   30.80    4.66
  -9  14  -2   38.52    5.10
  -9  14  -2   29.34    3.20
   9 -14   1   58.76    5.97
  -9  14  -1   59.49    6.12
   9 -14   0   47.48    5.75
  -9  14   0   48.49    5.90
   9 -14  -1   21.48    4.22
   9 -14  -1   19.00    3.57
  -9  14   1   19.73    4.15
  -9  14   1   22.50    3.86
   9 -14  -2   11.43    3.71
  -9  14   2    9.10    3.50
  -9  14   2   15.66    3.50
   9 -14  -3   32.62    4.88
  -9  14   3   37.21    5.02
  -9  14   3   33.64    4.66
   9 -14  -4    2.04    2.99
   9 -14  -4    4.51    1.53
   9 -14  -4    5.24    1.53
  -9  14   4    6.55    3.28
  -9  14   4    5.39    2.91
   9 -14  -5    0.95    2.99
  -9  14   5   -1.09    2.77
  -9  14   5    0.51    2.77
  -9  14   6   20.32    4.15
  -9  14   6   21.92    4.44
  -9  14   7   68.01    7.72
 -10  14  -7   49.22    5.90
 -10  14  -6    3.71    2.84
 -10  14  -5   51.84    5.83
  10 -14   4    1.02    2.84
 -10  14  -4    1.89    2.77
  10 -14   3    4.51    3.13
 -10  14  -3    5.46    3.20
 -10  14  -3    3.71    1.53
 -10  14  -3    5.32    1.53
  10 -14   2   27.01    4.73
 -10  14  -2   28.25    4.73
  10 -14   1   10.49    3.64
 -10  14  -1    9.68    3.57
  10 -14   0   50.02    5.68
 -10  14   0   51.55    6.12
  10 -14  -1   32.18    5.10
 -10  14   1   35.61    5.24
  10 -14  -2    9.17    3.79
 -10  14   2    6.77    3.42
  10 -14  -3    4.66    3.42
  10 -14  -3    2.04    1.60
  10 -14  -3    3.42    1.53
 -10  14   3    2.33    3.13
  10 -14  -4   65.53    6.19
  10 -14  -4   55.85    2.69
  10 -14  -4   51.70    2.55
 -10  14   4   64.66    6.48
 -10  14   4   70.12    6.26
  10 -14  -5   25.70    6.19
 -10  14   5   17.04    4.30
 -10  14   5   16.75    4.00
 -11  14  -5    4.81    3.86
 -11  14  -4   21.70    4.30
 -11  14  -4   19.59    2.18
 -11  14  -4   19.15    2.04
 -11  14  -3   14.64    3.93
  11 -14   2    1.67    3.28
 -11  14  -2   -1.38    2.77
  11 -14   1   26.80    4.66
 -11  14  -1   21.70    4.37
  11 -14   0    4.00    3.20
 -11  14   0    2.62    2.99
  11 -14  -1   84.32    6.77
 -11  14   1   93.79    7.14
  11 -14  -2   34.22    5.02
 -11  14   2   35.46    5.24
  11 -14  -3   26.87    4.95
  11 -14  -3   25.78    2.40
  11 -14  -3   24.03    2.26
 -11  14   3   23.88    6.77
 -12  14  -4   14.20    2.26
 -12  14  -4   14.56    2.11
  12 -14  -2   41.07    2.91
  12 -14  -2   33.42    2.69
  13 -14  -1    9.90    2.33
  13 -14  -1    8.01    2.11
   5 -15   4    5.75    3.35
   5 -15   3    0.15    2.77
   5 -15   2    3.71    2.99
   5 -15   1    7.57    3.35
   5 -15   0    7.79    4.44
  -5  15   0    7.28    1.53
   5 -15  -1    5.02    3.42
  -5  15   1    3.20    2.18
   5 -15  -2    4.08    3.28
   5 -15  -3  150.00    8.08
   6 -15   4   15.36    4.37
   6 -15   3   22.94    4.44
   6 -15   2    3.13    3.13
   6 -15   1    4.88    3.13
   6 -15   1    8.30    3.64
   6 -15   0    4.37    3.20
   6 -15   0    7.14    3.42
  -6  15   0    3.64    1.60
  -6  15   0    3.57    1.38
   6 -15  -1   53.45    7.57
   6 -15  -1   65.75    6.33
   6 -15  -2   36.04    4.81
  -6  15   4   84.25    6.55
   7 -15   4    2.69    4.51
   7 -15   3    1.02    3.28
   7 -15   2    6.63    3.57
   7 -15   2    8.81    3.50
   7 -15   1   12.60    4.00
   7 -15   1   15.58    3.93
  -7  15  -1   12.31    1.82
  -7  15  -1   10.49    1.60
   7 -15   0   46.24    6.26
   7 -15   0   55.27    6.04
   7 -15  -1   49.00    8.74
   7 -15  -1   51.92    5.90
   7 -15  -2   37.50    4.95
  -7  15   4    2.48    2.91
   7 -15  -5   14.05    2.33
   8 -15   2    4.95    3.20
  -8  15  -2    4.66    1.24
   8 -15   1   13.40    3.79
  -8  15  -1   14.93    2.18
  -8  15  -1   11.00    2.11
   8 -15   0   82.35   10.92
   8 -15   0   78.20    6.26
   8 -15  -1   12.16    3.57
  -8  15   3   24.47    4.15
  -8  15   4   11.36    3.64
  -9  15  -2   94.51    3.71
  -9  15  -2   77.40    3.35
   9 -15   1   34.08    4.81
   9 -15   0    3.64    2.84
  -9  15   3    2.99    3.06
   9 -15  -4    0.15    1.38
   9 -15  -4    1.09    1.31
  -9  15   4    1.17    3.35
 -10  15  -2   10.85    2.55
 -10  15   2   61.09    6.63
 -10  15   3   15.58    3.86
   0   0   0    0.00    0.00

_computing_structure_solution     'SHELXT 2014/5 (Sheldrick, 2014)'
;
_shelx_hkl_checksum   95934

