 
data_mht17pt4
 
_audit_creation_method            'SHELXL-2017/1'
_shelx_SHELXL_version_number      '2017/1'
_chemical_name_systematic         ?
_chemical_name_common             ?
_chemical_melting_point           ?
_chemical_formula_moiety          ?
_chemical_formula_sum
 'C20 H16 F2 N4 O2' 
_chemical_formula_weight          382.37

loop_
 _atom_type_symbol
 _atom_type_description
 _atom_type_scat_dispersion_real
 _atom_type_scat_dispersion_imag
 _atom_type_scat_source
 'C'  'C'   0.0181   0.0091
 'International Tables Vol C Tables 4.2.6.8 and 6.1.1.4'
 'H'  'H'   0.0000   0.0000
 'International Tables Vol C Tables 4.2.6.8 and 6.1.1.4'
 'N'  'N'   0.0311   0.0180
 'International Tables Vol C Tables 4.2.6.8 and 6.1.1.4'
 'O'  'O'   0.0492   0.0322
 'International Tables Vol C Tables 4.2.6.8 and 6.1.1.4'
 'F'  'F'   0.0727   0.0534
 'International Tables Vol C Tables 4.2.6.8 and 6.1.1.4'
 
_space_group_crystal_system       triclinic
_space_group_IT_number            2
_space_group_name_H-M_alt         'P -1'
_space_group_name_Hall            '-P 1'
 
_shelx_space_group_comment
;
The symmetry employed for this shelxl refinement is uniquely defined
by the following loop, which should always be used as a source of
symmetry information in preference to the above space-group names.
They are only intended as comments.
;
 
loop_
 _space_group_symop_operation_xyz
 'x, y, z'
 '-x, -y, -z'
 
_cell_length_a                    7.0577(4)
_cell_length_b                    9.6652(6)
_cell_length_c                    13.3327(8)
_cell_angle_alpha                 77.778(5)
_cell_angle_beta                  87.968(5)
_cell_angle_gamma                 84.622(5)
_cell_volume                      884.84(9)
_cell_formula_units_Z             2
_cell_measurement_temperature     100(2)
_cell_measurement_reflns_used     ?
_cell_measurement_theta_min       ?
_cell_measurement_theta_max       ?
 
_exptl_crystal_description        ?
_exptl_crystal_colour             ?
_exptl_crystal_density_meas       ?
_exptl_crystal_density_method     ?
_exptl_crystal_density_diffrn     1.435          
_exptl_crystal_F_000              396
_exptl_transmission_factor_min    ?
_exptl_transmission_factor_max    ?
_exptl_crystal_size_max           ?
_exptl_crystal_size_mid           ?
_exptl_crystal_size_min           ?
_exptl_absorpt_coefficient_mu     0.928
_shelx_estimated_absorpt_T_min    ?
_shelx_estimated_absorpt_T_max    ?
_exptl_absorpt_correction_type    ?
_exptl_absorpt_correction_T_min   ?
_exptl_absorpt_correction_T_max   ?
_exptl_absorpt_process_details    ?
_exptl_absorpt_special_details    ?
_diffrn_ambient_temperature       100(2)
_diffrn_radiation_wavelength      1.54178
_diffrn_radiation_type            CuK\a
_diffrn_source                    ?
_diffrn_measurement_device_type   ?
_diffrn_measurement_method        ?
_diffrn_detector_area_resol_mean  ?
_diffrn_reflns_number             22476
_diffrn_reflns_av_unetI/netI      0.0109
_diffrn_reflns_av_R_equivalents   0.0235
_diffrn_reflns_limit_h_min        -8
_diffrn_reflns_limit_h_max        8
_diffrn_reflns_limit_k_min        -12
_diffrn_reflns_limit_k_max        12
_diffrn_reflns_limit_l_min        -16
_diffrn_reflns_limit_l_max        16
_diffrn_reflns_theta_min          3.392
_diffrn_reflns_theta_max          76.308
_diffrn_reflns_theta_full         67.679
_diffrn_measured_fraction_theta_max   0.992
_diffrn_measured_fraction_theta_full  1.000
_diffrn_reflns_Laue_measured_fraction_max    0.992
_diffrn_reflns_Laue_measured_fraction_full   1.000
_diffrn_reflns_point_group_measured_fraction_max   0.992
_diffrn_reflns_point_group_measured_fraction_full  1.000
_reflns_number_total              3679
_reflns_number_gt                 3530
_reflns_threshold_expression      'I > 2\s(I)'
_reflns_Friedel_coverage          0.000
_reflns_Friedel_fraction_max      .
_reflns_Friedel_fraction_full     .
 
_reflns_special_details
;
 Reflections were merged by SHELXL according to the crystal
 class for the calculation of statistics and refinement.
 
 _reflns_Friedel_fraction is defined as the number of unique
 Friedel pairs measured divided by the number that would be
 possible theoretically, ignoring centric projections and
 systematic absences.
;
 
_computing_data_collection        ?
_computing_cell_refinement        ?
_computing_data_reduction         ?
_computing_structure_solution     ?
_computing_structure_refinement 'SHELXL-2017/1 (Sheldrick, 2017)'
_computing_molecular_graphics     ?
_computing_publication_material   ?
_refine_special_details           ?
_refine_ls_structure_factor_coef  Fsqd
_refine_ls_matrix_type            full
_refine_ls_weighting_scheme       calc
_refine_ls_weighting_details
'w=1/[\s^2^(Fo^2^)+(0.0400P)^2^+0.4000P] where P=(Fo^2^+2Fc^2^)/3'
_atom_sites_solution_primary      ?
_atom_sites_solution_secondary    ?
_atom_sites_solution_hydrogens    geom
_refine_ls_hydrogen_treatment     constr
_refine_ls_extinction_method      none
_refine_ls_extinction_coef        .
_refine_ls_number_reflns          3679
_refine_ls_number_parameters      253
_refine_ls_number_restraints      0
_refine_ls_R_factor_all           0.0348
_refine_ls_R_factor_gt            0.0336
_refine_ls_wR_factor_ref          0.0970
_refine_ls_wR_factor_gt           0.0963
_refine_ls_goodness_of_fit_ref    1.180
_refine_ls_restrained_S_all       1.180
_refine_ls_shift/su_max           0.000
_refine_ls_shift/su_mean          0.000
 
loop_
 _atom_site_label
 _atom_site_type_symbol
 _atom_site_fract_x
 _atom_site_fract_y
 _atom_site_fract_z
 _atom_site_U_iso_or_equiv
 _atom_site_adp_type
 _atom_site_occupancy
 _atom_site_site_symmetry_order  
 _atom_site_calc_flag
 _atom_site_refinement_flags_posn
 _atom_site_refinement_flags_adp
 _atom_site_refinement_flags_occupancy
 _atom_site_disorder_assembly
 _atom_site_disorder_group
F1 F -0.10489(12) 0.88802(8) 0.08198(6) 0.0303(2) Uani 1 1 d . . . . .
O1 O 0.20233(12) 0.11329(9) 0.34911(6) 0.01817(19) Uani 1 1 d . . . . .
N1 N 0.29006(15) -0.17223(11) 0.57864(8) 0.0205(2) Uani 1 1 d . . . . .
C1 C 0.23488(16) 0.03822(13) 0.44383(9) 0.0160(2) Uani 1 1 d . . . . .
O2 O 0.07488(13) 0.73919(9) 0.19057(7) 0.0237(2) Uani 1 1 d . . . . .
F2 F -0.10606(13) 0.66386(9) 0.08250(6) 0.0305(2) Uani 1 1 d . . . . .
N2 N 0.35396(15) 0.15291(12) 0.66527(8) 0.0196(2) Uani 1 1 d . . . . .
C2 C 0.24682(17) -0.10585(13) 0.47890(10) 0.0184(2) Uani 1 1 d . . . . .
H2 H 0.224012 -0.163584 0.431874 0.022 Uiso 1 1 calc R U . . .
N3 N 0.32731(15) 0.28299(11) 0.59851(8) 0.0192(2) Uani 1 1 d . . . . .
C3 C 0.32354(17) -0.09484(13) 0.64395(10) 0.0195(3) Uani 1 1 d . . . . .
H3 H 0.353510 -0.139818 0.712730 0.023 Uiso 1 1 calc R U . . .
N4 N 0.26532(14) 0.12117(11) 0.51402(8) 0.0155(2) Uani 1 1 d . . . . .
C4 C 0.31600(16) 0.05613(13) 0.61403(9) 0.0172(2) Uani 1 1 d . . . . .
C5 C 0.27384(17) 0.26539(13) 0.50865(9) 0.0168(2) Uani 1 1 d . . . . .
C6 C 0.22126(17) 0.38408(13) 0.42190(9) 0.0173(2) Uani 1 1 d . . . . .
C7 C 0.34731(18) 0.48751(13) 0.38731(10) 0.0190(3) Uani 1 1 d . . . . .
H7 H 0.470302 0.477633 0.416091 0.023 Uiso 1 1 calc R U . . .
C8 C 0.29322(18) 0.60503(13) 0.31077(10) 0.0197(3) Uani 1 1 d . . . . .
H8 H 0.378568 0.675981 0.287752 0.024 Uiso 1 1 calc R U . . .
C9 C 0.11364(18) 0.61847(13) 0.26796(10) 0.0191(3) Uani 1 1 d . . . . .
C10 C -0.01369(17) 0.51631(13) 0.30117(10) 0.0199(3) Uani 1 1 d . . . . .
H10 H -0.135769 0.525597 0.271411 0.024 Uiso 1 1 calc R U . . .
C11 C 0.04093(17) 0.40036(13) 0.37872(10) 0.0191(3) Uani 1 1 d . . . . .
H11 H -0.045949 0.330855 0.402828 0.023 Uiso 1 1 calc R U . . .
C12 C -0.09839(19) 0.75781(13) 0.14397(10) 0.0215(3) Uani 1 1 d . . . . .
H12 H -0.205365 0.750615 0.195523 0.026 Uiso 1 1 calc R U . . .
C13 C 0.17884(18) 0.03252(14) 0.27068(10) 0.0201(3) Uani 1 1 d . . . . .
H13A H 0.062839 -0.019031 0.284989 0.024 Uiso 1 1 calc R U . . .
H13B H 0.289955 -0.037567 0.268955 0.024 Uiso 1 1 calc R U . . .
C14 C 0.16200(19) 0.13864(15) 0.16918(10) 0.0229(3) Uani 1 1 d . . . . .
H14A H 0.126153 0.089550 0.115513 0.027 Uiso 1 1 calc R U . . .
H14B H 0.058851 0.213439 0.175057 0.027 Uiso 1 1 calc R U . . .
C15 C 0.34399(18) 0.20763(14) 0.13635(9) 0.0201(3) Uani 1 1 d . . . . .
C16 C 0.36994(19) 0.34104(14) 0.15398(10) 0.0231(3) Uani 1 1 d . . . . .
H16 H 0.271437 0.390018 0.186739 0.028 Uiso 1 1 calc R U . . .
C17 C 0.5379(2) 0.40401(15) 0.12441(11) 0.0271(3) Uani 1 1 d . . . . .
H17 H 0.553526 0.495227 0.137281 0.033 Uiso 1 1 calc R U . . .
C18 C 0.6824(2) 0.33422(16) 0.07629(11) 0.0281(3) Uani 1 1 d . . . . .
H18 H 0.796715 0.377597 0.055362 0.034 Uiso 1 1 calc R U . . .
C19 C 0.6590(2) 0.20052(16) 0.05886(11) 0.0293(3) Uani 1 1 d . . . . .
H19 H 0.757891 0.151832 0.026141 0.035 Uiso 1 1 calc R U . . .
C20 C 0.4912(2) 0.13740(15) 0.08911(10) 0.0259(3) Uani 1 1 d . . . . .
H20 H 0.476899 0.045360 0.077415 0.031 Uiso 1 1 calc R U . . .
 
loop_
 _atom_site_aniso_label
 _atom_site_aniso_U_11
 _atom_site_aniso_U_22
 _atom_site_aniso_U_33
 _atom_site_aniso_U_23
 _atom_site_aniso_U_13
 _atom_site_aniso_U_12
F1 0.0367(5) 0.0228(4) 0.0284(4) 0.0006(3) -0.0067(3) 0.0017(3)
O1 0.0209(4) 0.0176(4) 0.0173(4) -0.0062(3) -0.0023(3) -0.0017(3)
N1 0.0158(5) 0.0203(5) 0.0249(5) -0.0030(4) 0.0016(4) -0.0036(4)
C1 0.0108(5) 0.0195(6) 0.0189(6) -0.0064(5) 0.0005(4) -0.0023(4)
O2 0.0236(5) 0.0180(4) 0.0283(5) -0.0006(4) -0.0063(4) -0.0027(4)
F2 0.0390(5) 0.0300(4) 0.0259(4) -0.0122(3) -0.0042(3) -0.0045(4)
N2 0.0174(5) 0.0226(5) 0.0195(5) -0.0059(4) 0.0001(4) -0.0020(4)
C2 0.0151(6) 0.0186(6) 0.0226(6) -0.0063(5) 0.0008(4) -0.0038(5)
N3 0.0176(5) 0.0206(5) 0.0207(5) -0.0069(4) -0.0003(4) -0.0015(4)
C3 0.0151(6) 0.0216(6) 0.0205(6) -0.0011(5) 0.0006(4) -0.0035(5)
N4 0.0126(5) 0.0169(5) 0.0177(5) -0.0048(4) 0.0007(4) -0.0023(4)
C4 0.0116(5) 0.0227(6) 0.0173(6) -0.0041(5) 0.0014(4) -0.0021(4)
C5 0.0131(5) 0.0176(6) 0.0212(6) -0.0075(5) 0.0015(4) -0.0024(4)
C6 0.0172(6) 0.0162(6) 0.0199(6) -0.0074(5) 0.0001(4) -0.0005(4)
C7 0.0170(6) 0.0202(6) 0.0218(6) -0.0082(5) -0.0020(5) -0.0034(5)
C8 0.0195(6) 0.0181(6) 0.0236(6) -0.0073(5) 0.0001(5) -0.0054(5)
C9 0.0217(6) 0.0150(6) 0.0210(6) -0.0053(5) -0.0014(5) -0.0004(5)
C10 0.0144(6) 0.0201(6) 0.0263(6) -0.0078(5) -0.0021(5) -0.0002(5)
C11 0.0163(6) 0.0172(6) 0.0249(6) -0.0068(5) 0.0012(5) -0.0027(5)
C12 0.0247(6) 0.0193(6) 0.0201(6) -0.0043(5) -0.0029(5) 0.0014(5)
C13 0.0197(6) 0.0226(6) 0.0212(6) -0.0107(5) -0.0024(5) -0.0039(5)
C14 0.0204(6) 0.0290(7) 0.0208(6) -0.0084(5) -0.0057(5) -0.0012(5)
C15 0.0207(6) 0.0245(6) 0.0144(5) -0.0032(5) -0.0049(4) 0.0018(5)
C16 0.0232(6) 0.0229(6) 0.0221(6) -0.0047(5) -0.0006(5) 0.0034(5)
C17 0.0296(7) 0.0212(6) 0.0291(7) -0.0021(5) -0.0015(6) -0.0010(5)
C18 0.0220(7) 0.0299(7) 0.0273(7) 0.0044(6) 0.0008(5) 0.0001(5)
C19 0.0267(7) 0.0320(7) 0.0257(7) -0.0030(6) 0.0047(5) 0.0065(6)
C20 0.0302(7) 0.0255(7) 0.0223(6) -0.0079(5) -0.0005(5) 0.0023(5)
 
_geom_special_details
;
 All esds (except the esd in the dihedral angle between two l.s. planes)
 are estimated using the full covariance matrix.  The cell esds are taken
 into account individually in the estimation of esds in distances, angles
 and torsion angles; correlations between esds in cell parameters are only
 used when they are defined by crystal symmetry.  An approximate (isotropic)
 treatment of cell esds is used for estimating esds involving l.s. planes.
;
 
loop_
 _geom_bond_atom_site_label_1
 _geom_bond_atom_site_label_2
 _geom_bond_distance
 _geom_bond_site_symmetry_2
 _geom_bond_publ_flag
F1 C12 1.3493(15) . ?
O1 C1 1.3326(15) . ?
O1 C13 1.4534(14) . ?
N1 C3 1.3027(17) . ?
N1 C2 1.3798(17) . ?
C1 C2 1.3675(17) . ?
C1 N4 1.3888(15) . ?
O2 C12 1.3708(16) . ?
O2 C9 1.3969(15) . ?
F2 C12 1.3516(15) . ?
N2 C4 1.3206(16) . ?
N2 N3 1.3792(15) . ?
C2 H2 0.9500 . ?
N3 C5 1.3180(16) . ?
C3 C4 1.4253(18) . ?
C3 H3 0.9500 . ?
N4 C5 1.3873(15) . ?
N4 C4 1.3921(15) . ?
C5 C6 1.4766(17) . ?
C6 C7 1.3950(17) . ?
C6 C11 1.3971(17) . ?
C7 C8 1.3902(18) . ?
C7 H7 0.9500 . ?
C8 C9 1.3921(18) . ?
C8 H8 0.9500 . ?
C9 C10 1.3898(17) . ?
C10 C11 1.3893(18) . ?
C10 H10 0.9500 . ?
C11 H11 0.9500 . ?
C12 H12 1.0000 . ?
C13 C14 1.5160(18) . ?
C13 H13A 0.9900 . ?
C13 H13B 0.9900 . ?
C14 C15 1.5110(18) . ?
C14 H14A 0.9900 . ?
C14 H14B 0.9900 . ?
C15 C16 1.3882(19) . ?
C15 C20 1.3928(19) . ?
C16 C17 1.390(2) . ?
C16 H16 0.9500 . ?
C17 C18 1.384(2) . ?
C17 H17 0.9500 . ?
C18 C19 1.386(2) . ?
C18 H18 0.9500 . ?
C19 C20 1.391(2) . ?
C19 H19 0.9500 . ?
C20 H20 0.9500 . ?
 
loop_
 _geom_angle_atom_site_label_1
 _geom_angle_atom_site_label_2
 _geom_angle_atom_site_label_3
 _geom_angle
 _geom_angle_site_symmetry_1
 _geom_angle_site_symmetry_3
 _geom_angle_publ_flag
C1 O1 C13 116.42(9) . . ?
C3 N1 C2 118.95(11) . . ?
O1 C1 C2 129.05(11) . . ?
O1 C1 N4 113.57(10) . . ?
C2 C1 N4 117.36(11) . . ?
C12 O2 C9 118.21(10) . . ?
C4 N2 N3 106.76(10) . . ?
C1 C2 N1 123.79(11) . . ?
C1 C2 H2 118.1 . . ?
N1 C2 H2 118.1 . . ?
C5 N3 N2 109.78(10) . . ?
N1 C3 C4 121.17(12) . . ?
N1 C3 H3 119.4 . . ?
C4 C3 H3 119.4 . . ?
C5 N4 C1 134.96(10) . . ?
C5 N4 C4 105.07(10) . . ?
C1 N4 C4 119.72(10) . . ?
N2 C4 N4 110.00(11) . . ?
N2 C4 C3 131.09(12) . . ?
N4 C4 C3 118.89(11) . . ?
N3 C5 N4 108.39(11) . . ?
N3 C5 C6 123.63(11) . . ?
N4 C5 C6 127.86(11) . . ?
C7 C6 C11 119.17(11) . . ?
C7 C6 C5 119.80(11) . . ?
C11 C6 C5 120.85(11) . . ?
C8 C7 C6 120.10(11) . . ?
C8 C7 H7 119.9 . . ?
C6 C7 H7 119.9 . . ?
C7 C8 C9 119.82(11) . . ?
C7 C8 H8 120.1 . . ?
C9 C8 H8 120.1 . . ?
C10 C9 C8 120.92(12) . . ?
C10 C9 O2 123.89(11) . . ?
C8 C9 O2 115.20(11) . . ?
C11 C10 C9 118.74(12) . . ?
C11 C10 H10 120.6 . . ?
C9 C10 H10 120.6 . . ?
C10 C11 C6 121.23(11) . . ?
C10 C11 H11 119.4 . . ?
C6 C11 H11 119.4 . . ?
F1 C12 F2 106.63(10) . . ?
F1 C12 O2 105.39(10) . . ?
F2 C12 O2 110.21(11) . . ?
F1 C12 H12 111.4 . . ?
F2 C12 H12 111.4 . . ?
O2 C12 H12 111.4 . . ?
O1 C13 C14 106.77(10) . . ?
O1 C13 H13A 110.4 . . ?
C14 C13 H13A 110.4 . . ?
O1 C13 H13B 110.4 . . ?
C14 C13 H13B 110.4 . . ?
H13A C13 H13B 108.6 . . ?
C15 C14 C13 112.96(10) . . ?
C15 C14 H14A 109.0 . . ?
C13 C14 H14A 109.0 . . ?
C15 C14 H14B 109.0 . . ?
C13 C14 H14B 109.0 . . ?
H14A C14 H14B 107.8 . . ?
C16 C15 C20 118.42(12) . . ?
C16 C15 C14 121.00(12) . . ?
C20 C15 C14 120.57(12) . . ?
C15 C16 C17 120.98(12) . . ?
C15 C16 H16 119.5 . . ?
C17 C16 H16 119.5 . . ?
C18 C17 C16 120.19(13) . . ?
C18 C17 H17 119.9 . . ?
C16 C17 H17 119.9 . . ?
C17 C18 C19 119.46(13) . . ?
C17 C18 H18 120.3 . . ?
C19 C18 H18 120.3 . . ?
C18 C19 C20 120.21(13) . . ?
C18 C19 H19 119.9 . . ?
C20 C19 H19 119.9 . . ?
C19 C20 C15 120.73(13) . . ?
C19 C20 H20 119.6 . . ?
C15 C20 H20 119.6 . . ?
 
loop_
 _geom_torsion_atom_site_label_1
 _geom_torsion_atom_site_label_2
 _geom_torsion_atom_site_label_3
 _geom_torsion_atom_site_label_4
 _geom_torsion
 _geom_torsion_site_symmetry_1
 _geom_torsion_site_symmetry_2
 _geom_torsion_site_symmetry_3
 _geom_torsion_site_symmetry_4
 _geom_torsion_publ_flag
C13 O1 C1 C2 -1.10(17) . . . . ?
C13 O1 C1 N4 176.99(9) . . . . ?
O1 C1 C2 N1 176.92(11) . . . . ?
N4 C1 C2 N1 -1.11(18) . . . . ?
C3 N1 C2 C1 -0.65(18) . . . . ?
C4 N2 N3 C5 0.14(13) . . . . ?
C2 N1 C3 C4 0.05(17) . . . . ?
O1 C1 N4 C5 -1.60(18) . . . . ?
C2 C1 N4 C5 176.73(12) . . . . ?
O1 C1 N4 C4 -174.91(10) . . . . ?
C2 C1 N4 C4 3.42(16) . . . . ?
N3 N2 C4 N4 0.23(13) . . . . ?
N3 N2 C4 C3 178.63(12) . . . . ?
C5 N4 C4 N2 -0.49(13) . . . . ?
C1 N4 C4 N2 174.61(10) . . . . ?
C5 N4 C4 C3 -179.11(10) . . . . ?
C1 N4 C4 C3 -4.01(16) . . . . ?
N1 C3 C4 N2 -176.02(12) . . . . ?
N1 C3 C4 N4 2.26(18) . . . . ?
N2 N3 C5 N4 -0.45(13) . . . . ?
N2 N3 C5 C6 175.85(10) . . . . ?
C1 N4 C5 N3 -173.42(12) . . . . ?
C4 N4 C5 N3 0.57(13) . . . . ?
C1 N4 C5 C6 10.5(2) . . . . ?
C4 N4 C5 C6 -175.53(11) . . . . ?
N3 C5 C6 C7 54.17(17) . . . . ?
N4 C5 C6 C7 -130.27(13) . . . . ?
N3 C5 C6 C11 -120.98(13) . . . . ?
N4 C5 C6 C11 54.57(17) . . . . ?
C11 C6 C7 C8 -0.02(18) . . . . ?
C5 C6 C7 C8 -175.26(11) . . . . ?
C6 C7 C8 C9 -0.69(18) . . . . ?
C7 C8 C9 C10 0.48(19) . . . . ?
C7 C8 C9 O2 -178.99(11) . . . . ?
C12 O2 C9 C10 -0.47(18) . . . . ?
C12 O2 C9 C8 178.98(11) . . . . ?
C8 C9 C10 C11 0.43(19) . . . . ?
O2 C9 C10 C11 179.85(11) . . . . ?
C9 C10 C11 C6 -1.15(19) . . . . ?
C7 C6 C11 C10 0.95(18) . . . . ?
C5 C6 C11 C10 176.14(11) . . . . ?
C9 O2 C12 F1 173.38(10) . . . . ?
C9 O2 C12 F2 -71.94(14) . . . . ?
C1 O1 C13 C14 -174.91(10) . . . . ?
O1 C13 C14 C15 67.28(13) . . . . ?
C13 C14 C15 C16 -98.13(14) . . . . ?
C13 C14 C15 C20 80.78(15) . . . . ?
C20 C15 C16 C17 0.62(19) . . . . ?
C14 C15 C16 C17 179.55(12) . . . . ?
C15 C16 C17 C18 0.2(2) . . . . ?
C16 C17 C18 C19 -0.7(2) . . . . ?
C17 C18 C19 C20 0.3(2) . . . . ?
C18 C19 C20 C15 0.6(2) . . . . ?
C16 C15 C20 C19 -1.02(19) . . . . ?
C14 C15 C20 C19 -179.95(12) . . . . ?
 
_refine_diff_density_max    0.284
_refine_diff_density_min   -0.264
_refine_diff_density_rms    0.042

_shelx_res_file
;
TITL mht17pt3_a.res in P-1
    mht17pt4.res
    created by SHELXL-2017/1 at 13:43:03 on 03-Nov-2017
REM Old TITL mht17pt3 in P-1
REM SHELXT solution in P-1
REM R1 0.091,  Rweak 0.004,  Alpha 0.046,  Orientation as input
REM Formula found by SHELXT:  C20 N4 O2 F2
CELL  1.54178   7.0577   9.6652  13.3327   77.778   87.968   84.622
ZERR    2.000   0.0004   0.0006   0.0008    0.005    0.005    0.005
LATT  1
SFAC C H N O F
UNIT 40 32 8 4 4
L.S. 10
TEMP -173
LIST 4
ACTA
BOND $H
CONF
HTAB
FMAP 2
PLAN 20
WGHT    0.040000    0.400000
FVAR       0.92964
F1    5   -0.104889    0.888023    0.081983    11.00000    0.03669    0.02280 =
         0.02836    0.00058   -0.00675    0.00174
O1    4    0.202329    0.113294    0.349105    11.00000    0.02087    0.01761 =
         0.01730   -0.00615   -0.00233   -0.00172
N1    3    0.290057   -0.172232    0.578638    11.00000    0.01576    0.02034 =
         0.02493   -0.00304    0.00161   -0.00355
C1    1    0.234884    0.038223    0.443834    11.00000    0.01085    0.01950 =
         0.01891   -0.00644    0.00052   -0.00230
O2    4    0.074885    0.739193    0.190566    11.00000    0.02357    0.01800 =
         0.02829   -0.00062   -0.00626   -0.00272
F2    5   -0.106061    0.663857    0.082496    11.00000    0.03901    0.03000 =
         0.02588   -0.01223   -0.00415   -0.00447
N2    3    0.353965    0.152909    0.665270    11.00000    0.01742    0.02258 =
         0.01954   -0.00590    0.00012   -0.00204
C2    1    0.246815   -0.105854    0.478902    11.00000    0.01513    0.01863 =
         0.02260   -0.00628    0.00081   -0.00382
AFIX  43
H2    2    0.224012   -0.163584    0.431874    11.00000   -1.20000
AFIX   0
N3    3    0.327313    0.282990    0.598505    11.00000    0.01759    0.02059 =
         0.02067   -0.00688   -0.00026   -0.00152
C3    1    0.323539   -0.094836    0.643946    11.00000    0.01511    0.02163 =
         0.02050   -0.00113    0.00060   -0.00354
AFIX  43
H3    2    0.353510   -0.139818    0.712730    11.00000   -1.20000
AFIX   0
N4    3    0.265316    0.121174    0.514022    11.00000    0.01257    0.01694 =
         0.01765   -0.00480    0.00070   -0.00225
C4    1    0.316005    0.056125    0.614035    11.00000    0.01156    0.02266 =
         0.01728   -0.00412    0.00136   -0.00209
C5    1    0.273842    0.265387    0.508649    11.00000    0.01307    0.01760 =
         0.02121   -0.00749    0.00146   -0.00245
C6    1    0.221258    0.384079    0.421896    11.00000    0.01722    0.01620 =
         0.01994   -0.00737    0.00008   -0.00047
C7    1    0.347308    0.487514    0.387306    11.00000    0.01696    0.02020 =
         0.02184   -0.00820   -0.00197   -0.00338
AFIX  43
H7    2    0.470302    0.477633    0.416091    11.00000   -1.20000
AFIX   0
C8    1    0.293216    0.605034    0.310772    11.00000    0.01947    0.01808 =
         0.02360   -0.00732    0.00007   -0.00540
AFIX  43
H8    2    0.378568    0.675981    0.287752    11.00000   -1.20000
AFIX   0
C9    1    0.113644    0.618472    0.267958    11.00000    0.02167    0.01497 =
         0.02103   -0.00528   -0.00138   -0.00038
C10   1   -0.013691    0.516315    0.301170    11.00000    0.01435    0.02013 =
         0.02631   -0.00783   -0.00214   -0.00024
AFIX  43
H10   2   -0.135769    0.525597    0.271411    11.00000   -1.20000
AFIX   0
C11   1    0.040934    0.400364    0.378715    11.00000    0.01632    0.01716 =
         0.02494   -0.00680    0.00120   -0.00271
AFIX  43
H11   2   -0.045949    0.330855    0.402828    11.00000   -1.20000
AFIX   0
C12   1   -0.098393    0.757806    0.143974    11.00000    0.02474    0.01930 =
         0.02008   -0.00429   -0.00288    0.00136
AFIX  13
H12   2   -0.205365    0.750615    0.195523    11.00000   -1.20000
AFIX   0
C13   1    0.178842    0.032520    0.270679    11.00000    0.01968    0.02260 =
         0.02120   -0.01075   -0.00237   -0.00389
AFIX  23
H13A  2    0.062839   -0.019031    0.284989    11.00000   -1.20000
H13B  2    0.289955   -0.037567    0.268955    11.00000   -1.20000
AFIX   0
C14   1    0.162000    0.138637    0.169178    11.00000    0.02037    0.02902 =
         0.02079   -0.00838   -0.00574   -0.00116
AFIX  23
H14A  2    0.126153    0.089550    0.115513    11.00000   -1.20000
H14B  2    0.058851    0.213439    0.175057    11.00000   -1.20000
AFIX   0
C15   1    0.343988    0.207626    0.136352    11.00000    0.02070    0.02454 =
         0.01438   -0.00324   -0.00495    0.00178
C16   1    0.369942    0.341041    0.153980    11.00000    0.02322    0.02291 =
         0.02210   -0.00466   -0.00061    0.00337
AFIX  43
H16   2    0.271437    0.390018    0.186739    11.00000   -1.20000
AFIX   0
C17   1    0.537884    0.404010    0.124415    11.00000    0.02957    0.02116 =
         0.02912   -0.00212   -0.00151   -0.00102
AFIX  43
H17   2    0.553526    0.495227    0.137281    11.00000   -1.20000
AFIX   0
C18   1    0.682396    0.334219    0.076287    11.00000    0.02199    0.02993 =
         0.02726    0.00438    0.00077    0.00005
AFIX  43
H18   2    0.796715    0.377597    0.055362    11.00000   -1.20000
AFIX   0
C19   1    0.659004    0.200516    0.058856    11.00000    0.02674    0.03196 =
         0.02569   -0.00299    0.00465    0.00650
AFIX  43
H19   2    0.757891    0.151832    0.026141    11.00000   -1.20000
AFIX   0
C20   1    0.491227    0.137396    0.089107    11.00000    0.03016    0.02552 =
         0.02233   -0.00790   -0.00050    0.00226
AFIX  43
H20   2    0.476899    0.045360    0.077415    11.00000   -1.20000
AFIX   0
HKLF 4




REM  mht17pt3_a.res in P-1
REM R1 =  0.0336 for    3530 Fo > 4sig(Fo)  and  0.0348 for all    3679 data
REM    253 parameters refined using      0 restraints

END

WGHT      0.0292      0.5639

REM Instructions for potential hydrogen bonds
EQIV $1 -x, -y+1, -z+1
HTAB C12 N2_$1
EQIV $2 -x, -y+1, -z
HTAB C14 F1_$2

REM Highest difference peak  0.284,  deepest hole -0.264,  1-sigma level  0.042
Q1    1   0.2595  0.3220  0.4635  11.00000  0.05    0.28
Q2    1   0.3061 -0.0370  0.4558  11.00000  0.05    0.26
Q3    1   0.2903  0.0837  0.5660  11.00000  0.05    0.23
Q4    1   0.1830 -0.0329  0.4679  11.00000  0.05    0.23
Q5    1   0.3043  0.1934  0.4959  11.00000  0.05    0.22
Q6    1   0.3680 -0.0179  0.6238  11.00000  0.05    0.21
Q7    1   0.2826 -0.0100  0.6379  11.00000  0.05    0.20
Q8    1   0.2748  0.4392  0.4173  11.00000  0.05    0.20
Q9    1   0.3004  0.5557  0.3600  11.00000  0.05    0.20
Q10   1   0.1645  0.0929  0.2232  11.00000  0.05    0.19
Q11   1   0.0567  0.5638  0.2789  11.00000  0.05    0.19
Q12   1   0.3702  0.2627  0.1643  11.00000  0.05    0.19
Q13   1   0.2544  0.0854  0.4801  11.00000  0.05    0.19
Q14   1   0.0558  0.4276  0.3152  11.00000  0.05    0.18
Q15   1   0.1920  0.6239  0.3098  11.00000  0.05    0.18
Q16   1   0.4396  0.1573  0.1371  11.00000  0.05    0.18
Q17   1  -0.0038  0.4792  0.3581  11.00000  0.05    0.18
Q18   1   0.6525  0.2805  0.0465  11.00000  0.05    0.17
Q19   1   0.3516  0.2757  0.1356  11.00000  0.05    0.16
Q20   1   0.4437  0.3790  0.1151  11.00000  0.05    0.16
;
_shelx_res_checksum   97985

_shelx_hkl_file
;
   0   0   1  941.42    6.03
   0   0   2  279.21    3.04
   0   0   2  274.42    2.49
   0   0  -3   55.21    1.12
   0   0   3   55.81    1.55
   0   0   3   55.49    1.21
   0   0   4 4056.69   25.95
   0   0   4 3996.72   23.74
   0   0  -5  941.31    8.79
   0   0  -5  936.79    8.93
   0   0   5  928.48    9.55
   0   0  -5  952.44    8.97
   0   0  -6  123.90    3.21
   0   0  -6  122.55    3.14
   0   0   6  123.87    3.51
   0   0  -6  124.27    3.05
   0   0  -7  147.52    2.06
   0   0  -7  155.61    3.91
   0   0  -7  155.53    3.92
   0   0   7  157.43    4.45
   0   0  -7  163.32    3.84
   0   0  -8   29.19    1.81
   0   0   8   29.06    2.21
   0   0  -8   26.81    1.82
   0   0  -8   28.66    0.90
   0   0  -8   28.22    0.92
   0   0  -8   28.18    1.85
   0   0  -9  532.04    8.02
   0   0  -9  575.51    8.78
   0   0   9  561.19   10.65
   0   0  -9  542.29    8.93
   0   0  -9  570.02    9.27
   0   0  -9  564.43    5.18
   0   0  -9  559.92    5.08
   0   0  10   41.92    1.43
   0   0  10   41.79    1.42
   0   0  10   41.06    1.40
   0   0 -10   42.09    1.32
   0   0 -10   41.76    2.27
   0   0 -10   41.77    2.63
   0   0  10   40.06    1.38
   0   0 -10   40.88    2.46
   0   0  10   41.68    3.12
   0   0  10   42.69    1.41
   0   0 -10   42.51    2.55
   0   0  10   38.17    1.48
   0   0  10   41.16    1.29
   0   0 -10   41.71    1.25
   0   0  11   27.57    1.21
   0   0  11   27.22    1.11
   0   0 -11   26.82    2.09
   0   0  11   27.47    1.23
   0   0  11   27.32    1.22
   0   0  11   27.81    1.12
   0   0 -11   27.42    1.15
   0   0 -11   25.70    2.12
   0   0  11   23.35    2.01
   0   0  11   26.11    1.18
   0   0 -11   26.83    1.05
   0   0 -11   27.95    1.15
   0   0 -11   27.31    1.05
   0   0  11   29.05    1.22
   0   0  11   25.35    2.66
   0   0 -12  209.98    3.09
   0   0 -12  202.63    2.98
   0   0  12  212.19    3.20
   0   0  12  211.68    3.44
   0   0 -12  211.95    5.74
   0   0  12  197.84    3.12
   0   0 -12  216.02    3.28
   0   0  12  217.92    3.43
   0   0 -12  215.39    3.22
   0   0  12  204.48    3.41
   0   0  12  213.65    3.47
   0   0  12  217.40    3.42
   0   0 -13    7.54    0.70
   0   0  13    7.91    0.76
   0   0  13    7.16    0.62
   0   0  13    7.78    0.71
   0   0 -13    7.17    0.69
   0   0 -13    8.18    1.22
   0   0 -13    7.15    0.57
   0   0  13    7.88    0.76
   0   0 -13    7.78    0.63
   0   0  13    7.51    0.72
   0   0  14  114.91    2.03
   0   0 -14  119.68    2.16
   0   0  14  124.79    2.37
   0   0 -14  112.69    1.86
   0   0 -14  121.95    2.21
   0   0 -14  119.73    2.16
   0   0  14  120.97    2.34
   0   0  14  124.64    2.28
   0   0  14  120.56    2.25
   0   0 -14  113.04    1.99
   0   0  15   28.25    0.95
   0   0  15   29.56    1.04
   0   0 -15   28.75    0.92
   0   0  15   26.27    0.93
   0   0 -15   28.34    0.94
   0   0 -15   28.48    0.92
   0   0  15   28.57    1.02
   0   0  16    0.16    0.25
   0   0 -16    0.30    0.28
   0   0  16    0.06    0.27
   0   0  16   -0.10    0.33
   0   0 -16    0.11    0.25
   0   0 -16    0.27    0.29
   0   0 -16   -0.02    0.20
   0   1 -16  114.56    1.37
   0   1 -16  111.00    1.32
   0  -1  15   -0.18    0.36
   0   1 -15    0.30    0.32
   0  -1  15    0.50    0.24
   0  -1  15    0.24    0.29
   0  -1  15    0.11    0.36
   0   1 -15   -0.06    0.29
   0  -1  15    0.20    0.34
   0   1 -15    0.08    0.29
   0   1 -15    0.23    0.27
   0   1 -14   61.35    1.50
   0   1 -14   54.87    1.24
   0  -1  14   60.36    1.59
   0  -1  14   63.10    1.64
   0  -1  14   59.21    1.56
   0  -1  14   61.84    1.53
   0   1 -14   55.40    1.41
   0   1 -14   60.98    1.48
   0   1 -14   60.19    1.45
   0  -1  13  400.84    4.48
   0  -1  13  401.52    4.84
   0   1 -13  384.68    7.70
   0   1 -13  407.63    4.56
   0  -1  13  399.66    4.72
   0  -1  13  406.40    4.69
   0  -1  13  414.58    4.89
   0   1 -13  377.13    4.06
   0   1 -13  402.39    4.49
   0   1 -12  171.70    2.66
   0  -1  12  180.18    3.11
   0  -1  12  176.55    3.08
   0   1 -12  184.63    3.00
   0  -1  12  178.67    3.18
   0   1 -12  175.96    2.85
   0  -1  12  171.55    2.95
   0  -1  12  172.97    3.14
   0   1 -12  177.50    5.38
   0   1 -11    9.29    1.41
   0   1 -11   10.39    0.78
   0  -1  11    9.78    0.75
   0   1 -11   11.73    0.71
   0   1 -11    7.71    1.32
   0   1 -11    9.50    0.73
   0  -1  11   10.16    0.83
   0   1 -11   11.11    0.68
   0  -1  11    9.69    0.78
   0  -1  11    8.84    0.73
   0  -1  11    8.55    0.76
   0  -1  11   10.56    0.81
   0   1 -10    2.54    0.90
   0   1 -10    3.26    0.48
   0   1 -10    2.88    0.85
   0   1 -10    2.87    0.40
   0  -1  10    3.75    0.53
   0   1 -10    3.96    0.91
   0  -1  10    3.95    0.53
   0  -1  10    2.98    0.46
   0  -1  10    3.05    0.48
   0  -1  10    3.21    0.53
   0  -1  10    3.24    0.51
   0  -1  10    2.38    0.44
   0  -1  10    3.06    0.51
   0  -1  10    2.07    1.01
   0   1  -9  232.87    5.44
   0  -1   9  234.19    7.01
   0   1  -9  245.24    3.13
   0   1  -9  250.48    5.94
   0   1  -9  230.33    2.94
   0   1  -9  241.36    5.95
   0   1  -9  247.50    6.15
   0   1  -8  197.83    4.96
   0   1  -8  196.19    5.08
   0   1  -8  192.56    2.57
   0   1  -8  191.04    2.44
   0   1  -8  190.83    4.59
   0   1  -8  206.77    4.98
   0  -1   8  195.21    5.78
   0   1  -7  722.61    9.35
   0   1  -7  733.47    9.10
   0   1  -7  724.56    9.19
   0  -1   7  706.78   10.37
   0   1  -7  702.86    9.36
   0   1  -6  232.43    4.51
   0   1  -6  223.97    4.54
   0   1  -6  235.92    4.64
   0   1  -6  225.56    2.46
   0  -1   6  231.93    5.10
   0   1  -5  437.22    5.90
   0  -1   5  440.22    6.56
   0   1  -5  451.22    5.86
   0   1  -4    5.95    0.63
   0  -1   4    5.30    0.81
   0   1  -4    5.50    0.62
   0  -1   4    7.58    0.84
   0   1  -4    6.49    0.66
   0   1  -3  377.61    4.20
   0  -1   3  379.69    5.00
   0  -1   2 1018.19    8.14
   0   1  -2 1007.82    7.63
   0   1  -2 1008.53    7.32
   0  -1   1  346.27    3.38
   0   1  -1  342.73    2.83
   0   1  -1  352.95    2.87
   0   1   0  716.43    4.84
   0   1   0  727.51    5.15
   0  -1   0  722.63    5.05
   0   1   1  353.21    2.97
   0  -1  -1  346.97    2.93
   0   1   2  216.50    2.31
   0   1   2  211.41    2.60
   0  -1  -2  223.71    2.39
   0  -1  -2  228.65    2.62
   0  -1  -3 1374.41    9.69
   0  -1  -3 1379.55    9.72
   0   1   4  172.88    3.19
   0  -1  -4  173.88    2.77
   0  -1  -4  168.85    2.83
   0  -1  -4  174.06    2.71
   0  -1  -5   10.94    0.79
   0   1   5   11.32    1.03
   0  -1  -5   11.28    0.87
   0  -1  -5   13.67    0.93
   0   1   5   11.58    0.75
   0  -1  -6   45.68    1.78
   0  -1  -6   40.46    1.57
   0   1   6   44.82    2.08
   0  -1  -6   45.04    1.86
   0  -1  -6   47.50    1.87
   0   1   6   40.73    1.53
   0  -1  -7  234.22    4.71
   0   1   7  230.15    3.87
   0  -1  -7  236.31    4.48
   0   1   7  231.51    5.35
   0  -1  -7  220.49    2.56
   0  -1  -7  238.49    4.73
   0  -1  -8  153.11    4.13
   0  -1  -8  156.32    3.96
   0  -1  -8  148.93    4.04
   0  -1  -8  150.10    2.16
   0   1   8  144.28    4.63
   0  -1  -8  146.65    2.14
   0  -1  -9   16.87    1.55
   0  -1  -9   17.45    0.78
   0   1   9   15.01    1.74
   0  -1  -9   16.29    1.42
   0  -1  -9   15.93    1.42
   0  -1  -9   17.96    0.78
   0  -1 -10  613.12    9.28
   0  -1 -10  635.83    5.82
   0  -1 -10  612.78    9.58
   0  -1 -10  653.98   10.32
   0  -1 -10  641.45    5.86
   0   1  10  588.21   11.59
   0   1  11  681.73    6.48
   0  -1 -11  645.70    6.06
   0   1  11  683.33    6.64
   0   1  11  661.60    6.76
   0   1  11  635.08    6.83
   0   1  11  634.07    6.48
   0   1  11  604.77   12.43
   0   1  11  686.11    6.25
   0   1  11  656.79    6.51
   0  -1 -11  668.19    6.19
   0  -1 -11  661.46    6.22
   0  -1 -11  682.87    6.31
   0  -1 -11  687.06    6.34
   0  -1 -11  642.68    9.92
   0  -1 -11  685.70    6.33
   0  -1 -12    0.32    0.40
   0   1  12    0.51    0.42
   0  -1 -12   -0.30    0.40
   0   1  12   -0.14    0.44
   0  -1 -12   -0.02    0.31
   0   1  12    0.38    0.32
   0   1  12   -0.01    0.37
   0   1  12    0.72    0.48
   0   1  12   -0.33    0.42
   0   1  12    0.29    0.45
   0  -1 -12    1.10    0.41
   0  -1 -12   -0.08    0.42
   0   1  13   29.23    1.10
   0  -1 -13   30.61    1.19
   0   1  13   31.01    1.31
   0   1  13   28.10    1.15
   0   1  13   31.35    1.29
   0   1  13   31.53    1.28
   0  -1 -13   29.83    1.20
   0   1  13   31.40    1.23
   0  -1 -13   30.49    1.18
   0  -1 -13   30.05    1.13
   0   1  13   29.72    1.29
   0   1  14   -0.38    0.46
   0  -1 -14    0.06    0.35
   0   1  14    0.36    0.37
   0   1  14    0.42    0.39
   0   1  14    0.01    0.46
   0  -1 -14    0.06    0.33
   0  -1 -14    1.18    0.45
   0  -1 -14    0.24    0.35
   0  -1 -14    0.11    0.34
   0   1  15    1.71    0.37
   0   1  15    2.62    0.43
   0   1  15    2.16    0.45
   0  -1 -15    2.37    0.34
   0  -1 -15    2.01    0.37
   0  -1 -15    2.08    0.38
   0   1  15    2.55    0.48
   0  -1 -15    1.94    0.39
   0  -1 -15    2.16    0.36
   0  -1 -16    0.04    0.24
   0   1  16    0.16    0.26
   0  -1 -16   -0.05    0.29
   0   1  16    0.01    0.27
   0   1  16    0.32    0.31
   0  -1 -16    0.41    0.28
   0   1  16    0.52    0.33
   0   2 -15   21.98    0.70
   0   2 -15   22.71    0.71
   0  -2  15   18.68    0.72
   0  -2  15   21.05    0.67
   0   2 -15   20.07    0.60
   0   2 -14   15.28    0.72
   0   2 -14   14.81    0.68
   0   2 -14   14.27    0.70
   0  -2  14   15.11    0.75
   0   2 -14   15.01    0.74
   0  -2  14   15.93    0.82
   0  -2  14   14.59    0.80
   0  -2  14   14.79    0.80
   0   2 -14   15.30    0.73
   0   2 -13    1.91    0.42
   0  -2  13    1.09    0.48
   0  -2  13    0.44    0.49
   0  -2  13    0.39    0.39
   0  -2  13    0.53    0.48
   0   2 -13    0.58    0.37
   0  -2  13    0.75    0.33
   0   2 -13    0.35    0.36
   0   2 -12    6.37    1.21
   0   2 -12    4.93    1.11
   0   2 -12    5.79    0.58
   0  -2  12    6.27    0.66
   0  -2  12    5.72    0.71
   0  -2  12    6.41    0.70
   0   2 -12    5.89    0.66
   0  -2  12    6.28    0.68
   0  -2  12    5.95    0.72
   0  -2  11    0.42    0.38
   0  -2  11    0.46    0.45
   0   2 -11    2.18    0.78
   0   2 -11    1.10    0.71
   0   2 -11    0.57    0.35
   0  -2  11    0.51    0.43
   0  -2  11    0.49    0.43
   0  -2  11    0.87    0.49
   0  -2  10    2.01    0.46
   0   2 -10    3.61    0.40
   0  -2  10    1.98    0.48
   0   2 -10    1.87    0.47
   0  -2  10    2.23    0.50
   0   2 -10    3.05    1.01
   0  -2  10    2.09    0.54
   0   2 -10    2.12    0.74
   0   2 -10    1.21    0.71
   0  -2  10    1.40    0.89
   0   2 -10    1.68    0.39
   0   2  -9    3.94    0.39
   0   2  -9    3.56    0.93
   0  -2   9    4.82    0.58
   0  -2   9    4.76    0.57
   0  -2   9    4.33    0.54
   0   2  -9    3.66    0.96
   0  -2   9    2.08    0.96
   0   2  -9    4.17    0.46
   0   2  -9    4.11    0.99
   0  -2   9    4.32    0.52
   0  -2   8  199.50    6.13
   0   2  -8  189.99    2.64
   0   2  -8  201.27    5.33
   0   2  -8  195.68    5.05
   0   2  -8  203.04    5.15
   0   2  -8  205.85    5.53
   0  -2   7   76.47    3.46
   0   2  -7   78.70    2.97
   0   2  -7   80.72    3.21
   0   2  -7   81.31    3.00
   0   2  -7   76.19    1.47
   0  -2   7   72.42    2.48
   0   2  -7   78.31    2.95
   0  -2   6   72.84    3.05
   0   2  -6   75.50    2.87
   0   2  -6   73.47    2.69
   0   2  -6   69.57    1.29
   0   2  -6   73.02    2.58
   0  -2   6   74.13    3.29
   0   2  -5   54.42    2.04
   0   2  -5   56.14    2.13
   0  -2   5   56.01    2.40
   0   2  -5   55.17    2.05
   0  -2   5   51.72    2.49
   0   2  -5   53.66    2.21
   0   2  -4  693.52    7.38
   0   2  -4  701.62    7.30
   0   2  -4  682.85    7.93
   0  -2   4  696.77    8.31
   0  -2   4  691.07    8.66
   0   2  -4  709.63    7.50
   0   2  -3  395.76    4.83
   0  -2   3  408.56    5.61
   0   2  -3  407.38    4.77
   0   2  -3  396.03    5.21
   0  -2   3  405.94    5.43
   0   2  -2  432.88    4.51
   0   2  -2  424.62    4.44
   0   2  -2  433.81    4.94
   0  -2   2  442.24    5.20
   0  -2   1  216.49    3.07
   0   2  -1  211.87    2.21
   0   2  -1  209.19    2.89
   0  -2   1  206.65    3.03
   0  -2   0  359.86    3.88
   0   2   0  364.87    2.54
   0   2   0  366.62    3.62
   0  -2  -1 3847.85   22.91
   0   2   1 3796.40   22.88
   0  -2  -2  132.27    2.14
   0   2   2  130.76    2.15
   0  -2  -3 4195.81   25.64
   0   2   3 4242.89   25.45
   0  -2  -4  105.12    2.20
   0  -2  -4  102.09    2.03
   0   2   4  107.86    2.11
   0  -2  -4  106.76    2.42
   0   2   4  105.58    2.49
   0   2   4  102.68    2.12
   0   2   5   68.23    1.90
   0  -2  -5   65.91    1.89
   0  -2  -5   63.74    1.93
   0   2   5   64.26    2.19
   0  -2  -5   66.72    2.02
   0  -2  -5   68.89    1.92
   0  -2  -5   68.24    1.80
   0  -2  -6  116.68    2.97
   0  -2  -6  123.30    2.78
   0   2   6  125.42    3.44
   0  -2  -6  122.91    2.82
   0  -2  -6  125.94    2.95
   0  -2  -6  122.49    2.98
   0   2   7   46.63    1.78
   0  -2  -7   52.35    1.99
   0  -2  -7   54.44    2.10
   0  -2  -7   52.78    1.12
   0  -2  -7   48.47    2.08
   0   2   7   55.08    1.15
   0  -2  -7   53.27    2.01
   0  -2  -7   51.02    2.18
   0   2   7   50.98    2.46
   0  -2  -8   32.02    1.85
   0  -2  -8   33.12    1.90
   0   2   8   32.83    1.59
   0  -2  -8   34.90    1.01
   0   2   8   31.21    2.15
   0  -2  -8   32.40    0.99
   0  -2  -8   32.56    1.72
   0   2   9  132.81    4.78
   0  -2  -9  138.37    2.25
   0  -2  -9  135.30    3.72
   0  -2  -9  141.71    2.23
   0  -2  -9  138.99    4.19
   0  -2 -10    1.06    0.33
   0  -2 -10    0.96    0.35
   0  -2 -10    1.09    0.68
   0   2  11  448.78    5.03
   0  -2 -11  476.18    5.04
   0   2  11  445.70    5.44
   0  -2 -11  472.20    5.04
   0   2  11  491.05    4.97
   0  -2 -11  485.91    5.01
   0  -2 -11  452.12    4.81
   0   2  11  451.82    5.36
   0  -2 -11  480.61    5.05
   0   2  11  475.99    5.26
   0  -2 -11  468.65    5.12
   0  -2 -11  495.80    5.15
   0   2  11  466.79    5.07
   0   2  12  818.83    7.27
   0  -2 -12  793.50    7.18
   0   2  12  815.06    7.08
   0   2  12  813.92    7.50
   0  -2 -12  822.97    7.25
   0   2  12  794.31    7.78
   0  -2 -12  814.17    7.29
   0   2  12  753.94    7.58
   0   2  12  757.09    7.23
   0  -2 -12  816.68    7.29
   0  -2 -12  824.12    7.15
   0   2  12  813.60    7.60
   0   2  13   52.66    1.54
   0  -2 -13   60.22    1.57
   0  -2 -13   58.35    1.56
   0  -2 -13   57.90    1.63
   0   2  13   58.79    1.75
   0  -2 -13   57.39    1.55
   0   2  13   58.91    1.74
   0  -2 -13   56.16    1.63
   0   2  13   56.76    1.55
   0  -2 -13   58.49    1.62
   0   2  13   57.64    1.81
   0   2  13   56.89    1.58
   0   2  14   70.80    1.83
   0  -2 -14   68.27    1.65
   0   2  14   74.32    1.81
   0  -2 -14   72.32    1.72
   0  -2 -14   71.62    1.71
   0   2  14   65.53    1.56
   0  -2 -14   70.03    1.56
   0  -2 -14   68.64    1.59
   0   2  14   71.86    1.81
   0   2  14   70.90    1.65
   0   2  14   72.22    1.86
   0   2  15   35.97    1.11
   0   2  15   35.39    1.19
   0  -2 -15   33.51    0.98
   0  -2 -15   33.64    0.94
   0  -2 -15   34.83    1.07
   0  -2 -15   34.70    1.04
   0  -2 -15   37.44    1.10
   0   2  15   34.94    1.14
   0   2  16   12.40    0.62
   0   2  16   11.40    0.59
   0  -2 -16   11.39    0.50
   0   2  16   11.45    0.54
   0  -2 -16   11.46    0.55
   0   3 -14    4.53    0.39
   0   3 -14    3.83    0.31
   0   3 -14    4.29    0.39
   0  -3  14    4.11    0.45
   0  -3  14    3.73    0.47
   0   3 -14    4.54    0.41
   0   3 -13    1.08    0.36
   0  -3  13    0.50    0.42
   0   3 -13    1.05    0.35
   0  -3  13    0.81    0.39
   0   3 -13    0.57    0.33
   0   3 -13    0.81    0.30
   0  -3  13    0.76    0.45
   0  -3  13    0.77    0.43
   0   3 -13    1.08    0.34
   0  -3  12  109.55    2.38
   0   3 -12  106.83    2.09
   0  -3  12  106.44    2.26
   0  -3  12  108.68    2.28
   0   3 -12   88.87    3.89
   0   3 -12  100.45    4.00
   0   3 -12  106.83    2.20
   0   3 -12   92.45    3.72
   0   3 -12  102.86    1.94
   0   3 -11   11.34    0.78
   0  -3  11   12.77    0.88
   0   3 -11   12.10    1.60
   0  -3  11   11.90    0.88
   0  -3  11   11.55    0.89
   0  -3  11   11.33    0.90
   0   3 -11   11.06    0.70
   0  -3  11   11.42    0.85
   0   3 -11   10.37    1.54
   0   3 -10   34.72    1.19
   0  -3  10   36.55    1.38
   0   3 -10   33.42    2.39
   0  -3  10   37.39    1.41
   0  -3  10   35.94    1.45
   0  -3  10   35.88    1.38
   0  -3  10   35.70    1.44
   0   3 -10   34.92    2.60
   0   3 -10   37.59    1.30
   0   3 -10   33.76    1.14
   0   3 -10   36.22    2.59
   0   3  -9    2.06    0.70
   0   3  -9    1.35    0.88
   0  -3   9    0.39    0.78
   0  -3   9    3.42    0.51
   0  -3   9    1.70    0.47
   0  -3   9    1.44    0.41
   0   3  -9    5.36    0.50
   0   3  -9    2.62    0.84
   0   3  -9    3.25    0.49
   0  -3   9    1.69    0.47
   0  -3   9    2.37    0.51
   0  -3   8   17.14    1.99
   0   3  -8   16.23    0.74
   0   3  -8   14.14    1.54
   0   3  -8   17.85    1.77
   0   3  -8   18.15    1.71
   0   3  -7   21.84    0.81
   0  -3   7   21.46    2.06
   0   3  -7   23.85    1.81
   0   3  -7   22.08    1.66
   0   3  -7   22.90    1.80
   0   3  -7   22.77    1.90
   0   3  -6   34.67    1.91
   0   3  -6   34.82    2.14
   0   3  -6   33.40    1.83
   0   3  -6   34.41    2.02
   0  -3   6   34.67    2.43
   0   3  -6   36.80    2.09
   0  -3   6   32.67    2.27
   0   3  -6   32.28    0.88
   0   3  -5  413.90    6.65
   0  -3   5  422.00    7.35
   0   3  -5  419.87    6.93
   0  -3   5  406.80    7.58
   0   3  -5  416.71    6.26
   0   3  -5  412.08    6.57
   0   3  -4  459.55    6.04
   0   3  -4  455.48    6.49
   0  -3   4  445.86    7.28
   0   3  -4  459.09    6.71
   0  -3   4  459.26    7.10
   0   3  -3   51.11    1.99
   0  -3   3   48.31    2.09
   0   3  -3   49.19    1.66
   0  -3   3   49.43    2.01
   0   3  -3   49.89    1.90
   0   3  -3   48.05    1.57
   0  -3   2  136.93    3.16
   0   3  -2  141.02    2.96
   0   3  -2  135.66    2.87
   0   3  -2  131.13    2.47
   0  -3   2  142.78    3.15
   0   3  -1 1404.19   11.18
   0   3  -1 1471.33   11.17
   0  -3   1 1466.82   11.67
   0   3  -1 1406.51   11.52
   0   3  -1 1391.60    9.88
   0   3  -1 1440.11   11.88
   0  -3   1 1420.02   11.76
   0   3   0  195.11    3.30
   0   3   0  194.25    2.92
   0  -3   0  193.49    3.25
   0   3   0  186.43    3.10
   0   3   1  267.34    3.74
   0   3   1  246.10    3.56
   0   3   1  266.52    3.57
   0   3   1  246.82    3.54
   0  -3  -1  265.82    3.52
   0  -3  -1  263.80    3.79
   0   3   2    8.87    0.68
   0   3   2   11.33    0.75
   0   3   2    8.68    0.70
   0  -3  -2    8.85    0.71
   0  -3  -2    9.58    0.77
   0  -3  -3  568.50    5.77
   0   3   3  573.51    5.95
   0   3   3  561.50    5.41
   0  -3  -3  573.98    6.00
   0   3   3  566.11    5.56
   0   3   3  566.60    5.53
   0   3   3  572.40    5.68
   0   3   4 2000.60   14.39
   0   3   4 1972.83   14.69
   0   3   4 1962.91   14.43
   0  -3  -4 1958.93   13.07
   0  -3  -4 1992.11   14.87
   0   3   5  994.18    9.08
   0  -3  -5  991.75    9.40
   0  -3  -5  986.41    8.46
   0  -3  -5 1016.18   10.13
   0   3   5 1010.03    9.13
   0  -3  -5  980.37    8.87
   0   3   6 1910.13   15.11
   0  -3  -6 1935.40   16.31
   0  -3  -6 1912.49   15.39
   0   3   6 1916.07   11.72
   0  -3  -7  140.63    3.47
   0  -3  -7  142.99    1.93
   0  -3  -7  141.56    3.55
   0  -3  -7  146.08    3.42
   0   3   7  140.25    1.91
   0  -3  -8   20.58    0.82
   0  -3  -8   19.49    1.45
   0   3   8   20.21    1.30
   0  -3  -8   20.74    0.78
   0  -3  -8   20.38    1.44
   0   3   8   19.52    0.79
   0  -3  -9  122.24    2.12
   0  -3  -9  121.54    2.05
   0  -3  -9  118.19    3.59
   0   3   9  117.69    2.04
   0  -3 -10    7.88    0.60
   0   3  10    9.90    0.71
   0  -3 -10    8.36    0.63
   0  -3 -10    7.49    0.59
   0   3  10    7.34    0.62
   0  -3 -10    7.14    0.60
   0  -3 -10    7.40    0.62
   0  -3 -10    7.38    0.56
   0  -3 -10    6.92    1.00
   0  -3 -10    6.71    0.56
   0  -3 -11  189.96    2.98
   0  -3 -11  186.01    2.98
   0  -3 -11  183.55    3.00
   0  -3 -11  182.67    2.74
   0  -3 -11  181.53    2.82
   0   3  11  175.40    2.85
   0  -3 -11  181.06    2.89
   0   3  11  177.92    2.91
   0   3  11  181.89    3.01
   0   3  12  246.29    3.62
   0  -3 -12  248.27    3.55
   0  -3 -12  244.87    3.56
   0  -3 -12  247.31    3.30
   0   3  12  255.82    3.44
   0  -3 -12  239.59    3.48
   0   3  12  237.75    3.49
   0   3  12  238.47    3.81
   0   3  13   68.94    1.68
   0   3  13   67.36    1.94
   0   3  13   69.41    1.90
   0  -3 -13   67.79    1.76
   0  -3 -13   66.96    1.75
   0   3  13   68.63    1.84
   0  -3 -13   67.96    1.79
   0  -3 -13   68.27    1.73
   0  -3 -13   67.07    1.61
   0  -3 -14    6.76    0.64
   0  -3 -14    6.55    0.63
   0   3  14    5.82    0.56
   0   3  14    6.36    0.66
   0   3  14    6.57    0.69
   0   3  14    6.56    0.67
   0  -3 -14    6.18    0.55
   0   3  15   -0.20    0.35
   0  -3 -15    0.39    0.34
   0  -3 -15    0.08    0.26
   0   3  15    0.02    0.40
   0   3  15    0.48    0.35
   0   3  15    0.11    0.35
   0   3  15    0.48    0.40
   0  -3 -15    0.30    0.34
   0  -3 -15    0.21    0.28
   0   3  16   12.20    0.55
   0   3  16   12.05    0.58
   0  -3 -16   12.28    0.52
   0   3  16   12.77    0.62
   0  -3 -16   11.27    0.48
   0  -4  14    1.31    0.32
   0   4 -14    0.86    0.28
   0   4 -14    0.97    0.28
   0   4 -13    6.76    0.46
   0  -4  13    6.61    0.54
   0  -4  13    6.95    0.54
   0   4 -13    6.19    0.43
   0   4 -13    6.36    0.44
   0   4 -12   45.80    1.33
   0  -4  12   47.74    1.40
   0   4 -12   43.63    1.19
   0  -4  12   47.55    1.44
   0   4 -12   45.30    1.21
   0   4 -12   44.24    1.21
   0  -4  12   44.82    1.34
   0   4 -11  235.46    3.16
   0  -4  11  249.60    3.63
   0   4 -11  244.48    6.29
   0   4 -11  220.89    6.02
   0   4 -11  243.32    3.45
   0  -4  11  250.65    3.71
   0  -4  11  247.99    3.72
   0   4 -11  216.00    6.29
   0  -4  11  238.85    3.45
   0  -4  10   65.34    1.79
   0  -4  10   67.60    1.96
   0   4 -10   67.65    3.44
   0   4 -10   62.20    3.48
   0   4 -10   61.40    1.59
   0   4 -10   66.27    3.43
   0  -4  10   65.04    1.88
   0  -4   9    0.72    0.44
   0  -4   9    0.10    0.42
   0  -4   9   -0.11    0.45
   0   4  -9    0.09    0.32
   0   4  -9    0.11    0.63
   0  -4   9   -0.40    0.39
   0   4  -9   -0.52    0.78
   0   4  -8   13.28    1.57
   0  -4   8   12.09    0.82
   0   4  -8   11.95    1.62
   0  -4   8    8.67    1.58
   0  -4   8    9.99    0.70
   0  -4   8   10.27    0.73
   0  -4   8   11.82    0.85
   0   4  -8   10.72    1.49
   0   4  -8   10.70    0.68
   0  -4   8   12.32    0.86
   0   4  -7 1057.21   13.46
   0   4  -7  979.95    7.78
   0  -4   7  967.76   15.39
   0   4  -7 1062.20   13.89
   0   4  -7 1050.15   13.30
   0  -4   7  988.76   15.00
   0   4  -6   25.75    1.92
   0   4  -6   27.53    1.91
   0  -4   6   23.60    2.08
   0  -4   6   23.43    2.22
   0   4  -6   25.69    1.97
   0   4  -5  317.30    6.06
   0  -4   5  317.29    6.89
   0   4  -5  319.20    6.33
   0  -4   5  302.70    7.10
   0   4  -5  318.68    6.42
   0  -4   4  692.65    9.71
   0   4  -4  698.92    9.21
   0  -4   4  673.83   10.11
   0   4  -4  672.99    8.70
   0   4  -4  695.89    9.14
   0  -4   3 2078.77   18.69
   0  -4   3 2172.32   18.21
   0   4  -3 2033.32   16.79
   0   4  -3 2085.35   17.51
   0   4  -3 2124.29   17.61
   0   4  -2  710.47    7.73
   0   4  -2  736.23    9.03
   0   4  -2  740.72    8.34
   0  -4   2  718.93    9.04
   0   4  -2  724.25    8.66
   0   4  -1  110.17    3.08
   0  -4   1  109.84    3.04
   0   4  -1  108.41    2.83
   0   4  -1  111.81    2.73
   0   4  -1  105.32    2.78
   0  -4   1  112.99    3.03
   0   4  -1  107.62    2.87
   0  -4   0 2187.61   16.91
   0   4   0 2160.70   16.28
   0   4   0 2201.74   16.83
   0  -4   0 2147.70   16.76
   0   4   0 2131.74   15.94
   0   4   1   31.46    1.44
   0   4   1   33.46    1.45
   0  -4  -1   35.04    1.59
   0   4   1   35.97    1.51
   0   4   1   34.29    1.54
   0  -4  -2   11.90    1.02
   0   4   2   13.07    1.01
   0   4   2   14.10    0.99
   0   4   2   12.90    0.95
   0   4   2   11.94    0.93
   0   4   3  540.88    6.46
   0   4   3  525.40    6.67
   0   4   3  515.62    6.24
   0  -4  -3  530.10    6.73
   0  -4  -3  541.89    6.73
   0   4   4   29.85    1.41
   0   4   4   32.40    1.51
   0  -4  -4   32.36    1.67
   0   4   4   32.96    1.52
   0  -4  -4   33.60    1.62
   0   4   4   32.74    1.51
   0  -4  -5 1541.07   14.36
   0   4   5 1497.52   13.29
   0   4   5 1521.68   13.02
   0   4   5 1515.34   12.91
   0  -4  -5 1531.55   13.63
   0  -4  -6  212.58    4.43
   0   4   6  211.32    2.55
   0   4   6  201.33    2.34
   0   4   7   31.59    0.90
   0   4   7   32.05    1.73
   0   4   7   31.58    1.00
   0  -4  -7   30.40    1.77
   0  -4  -8   78.22    1.62
   0   4   8   81.54    1.60
   0  -4  -8   82.93    3.04
   0  -4  -9  357.88    6.80
   0  -4  -9  348.22    3.74
   0  -4 -10    0.39    0.33
   0   4  10    0.25    0.35
   0  -4 -10    0.83    0.33
   0   4  10    0.68    0.37
   0  -4 -10    0.66    0.35
   0  -4 -10    0.17    0.45
   0  -4 -10    0.89    0.31
   0  -4 -10    0.50    0.33
   0   4  11    1.72    0.47
   0   4  11    2.20    0.50
   0  -4 -11    1.24    0.39
   0  -4 -11    1.52    0.42
   0  -4 -11    1.73    0.41
   0  -4 -12  882.01    7.78
   0  -4 -12  859.85    7.57
   0  -4 -12  868.39    7.74
   0   4  12  852.35    7.57
   0   4  12  878.90    7.76
   0  -4 -12  865.31    7.40
   0  -4 -13   34.69    1.17
   0  -4 -13   33.07    1.27
   0  -4 -13   30.73    1.11
   0  -4 -13   31.61    1.21
   0   4  13   32.26    1.38
   0   4  13   31.91    1.25
   0   4  13   34.31    1.18
   0   4  14   55.47    1.51
   0  -4 -14   53.60    1.44
   0   4  14   56.11    1.40
   0  -4 -14   52.98    1.28
   0   4  14   56.55    1.64
   0   4  14   54.16    1.58
   0  -4 -14   56.88    1.53
   0  -4 -14   53.83    1.35
   0   4  15   13.53    0.65
   0   4  15   15.06    0.80
   0  -4 -15   14.98    0.74
   0  -4 -15   13.99    0.61
   0   4  15   15.59    0.77
   0   4  15   14.54    0.72
   0   4  16   60.16    1.11
   0   4  16   59.25    1.14
   0  -4 -16   61.64    1.12
   0   5 -13   28.42    0.71
   0  -5  13   36.72    0.87
   0  -5  13   27.47    0.65
   0   5 -13   36.06    0.84
   0   5 -12   12.95    0.54
   0  -5  12   12.43    0.64
   0   5 -12   12.09    0.61
   0  -5  12   13.93    0.71
   0   5 -11   74.33    1.69
   0   5 -11   75.28    1.49
   0  -5  11   70.47    1.62
   0   5 -10   44.21    2.86
   0   5 -10   44.70    1.40
   0  -5  10   42.19    1.36
   0   5 -10   41.45    2.69
   0   5 -10   45.05    1.25
   0  -5  10   47.57    1.54
   0   5  -9   82.44    3.85
   0   5  -9   83.87    2.00
   0   5  -9   85.08    4.03
   0   5  -9   83.69    3.81
   0  -5   9   85.96    2.15
   0  -5   9   86.57    2.12
   0   5  -9   83.04    3.90
   0  -5   9   82.17    1.94
   0   5  -8  175.95    5.44
   0  -5   8  169.20    2.83
   0   5  -8  161.48    5.78
   0  -5   8  166.09    3.09
   0   5  -8  178.07    5.87
   0   5  -8  171.20    5.59
   0  -5   8  165.84    2.85
   0   5  -8  172.52    2.89
   0  -5   8  170.89    3.08
   0   5  -8  169.40    5.51
   0   5  -7  576.12   10.27
   0   5  -7  583.03   10.67
   0  -5   7  526.90    5.90
   0   5  -7  598.07   10.30
   0  -5   7  557.18    5.99
   0  -5   7  516.47    5.59
   0  -5   7  539.41   11.77
   0   5  -7  549.94   10.63
   0   5  -7  589.10    9.85
   0  -5   7  552.44   11.65
   0  -5   6  233.20    3.48
   0   5  -6  251.04    6.25
   0  -5   6  229.20    6.89
   0   5  -6  238.70    6.62
   0   5  -6  239.15    6.42
   0  -5   6  228.97    7.21
   0  -5   6  220.61    3.46
   0   5  -6  238.75    5.90
   0   5  -5  394.26    7.54
   0   5  -5  370.37    7.02
   0   5  -5  371.87    7.67
   0  -5   5  359.14    8.51
   0  -5   5  367.94    8.20
   0   5  -5  378.11    8.02
   0   5  -4  601.47    9.72
   0   5  -4  609.51    9.10
   0   5  -4  588.84    8.51
   0  -5   4  617.75    9.96
   0   5  -4  604.88    9.45
   0   5  -3   31.93    2.01
   0  -5   3   31.39    2.02
   0   5  -3   33.56    2.01
   0   5  -3   32.44    2.02
   0   5  -3   33.18    2.15
   0   5  -3   29.47    1.70
   0  -5   3   32.08    2.19
   0   5  -3   34.22    1.98
   0  -5   2  443.77    7.11
   0   5  -2  414.75    6.81
   0   5  -2  447.01    7.52
   0  -5   2  432.49    7.63
   0  -5   2  439.46    7.48
   0   5  -2  436.40    6.79
   0   5  -2  404.94    6.00
   0   5  -2  428.83    6.92
   0   5  -2  429.15    7.04
   0  -5   1   23.10    1.64
   0   5  -1   22.17    1.47
   0   5  -1   21.63    1.59
   0   5  -1   23.05    1.51
   0  -5   1   23.45    1.70
   0   5  -1   24.38    1.59
   0   5   0  349.40    5.74
   0   5   0  358.07    5.73
   0  -5   0  369.19    6.29
   0   5   0  367.92    6.05
   0  -5   0  366.26    6.25
   0   5   1  543.12    7.19
   0  -5  -1  547.33    7.60
   0   5   1  519.27    6.63
   0   5   1  518.68    7.19
   0   5   1  535.99    6.93
   0   5   1  551.83    7.40
   0   5   2   39.19    1.84
   0   5   2   39.41    1.82
   0   5   2   37.24    1.80
   0  -5  -2   39.39    1.97
   0   5   2   39.24    1.90
   0  -5  -3   35.39    1.90
   0   5   3   33.75    1.69
   0   5   3   35.73    1.78
   0   5   3   37.30    1.88
   0  -5  -4  436.71    6.86
   0   5   4  437.61    6.44
   0   5   4  431.27    6.38
   0   5   4  442.03    6.84
   0   5   4  421.38    6.28
   0   5   5   62.11    1.34
   0   5   5   63.09    2.37
   0  -5  -5   67.08    2.65
   0   5   5   65.85    2.48
   0   5   5   67.00    2.44
   0   5   6    1.33    0.31
   0   5   6    1.15    0.56
   0   5   6    2.09    0.67
   0   5   6    1.14    0.54
   0   5   6    2.05    0.34
   0   5   7 1507.77   10.10
   0   5   7 1458.97   10.51
   0   5   7 1502.15   14.42
   0  -5  -7 1477.74   15.28
   0  -5  -8  195.51    5.07
   0   5   8  194.44    2.64
   0   5   9    0.85    0.34
   0  -5  -9    0.89    0.30
   0   5   9    0.79    0.35
   0  -5  -9    0.47    0.32
   0   5   9    0.75    0.32
   0  -5  -9    0.76    0.32
   0   5   9    1.79    0.40
   0  -5  -9    0.56    0.30
   0  -5  -9    0.98    0.57
   0  -5 -10  125.06    2.47
   0  -5 -10  124.08    2.33
   0   5  10  123.24    2.26
   0  -5 -10  125.12    2.43
   0   5  10  119.73    2.37
   0  -5 -10  115.91    4.13
   0   5  10  123.10    2.33
   0  -5 -10  119.49    2.29
   0   5  10  120.87    2.31
   0   5  10  120.46    2.25
   0  -5 -11   55.40    1.64
   0   5  11   55.86    1.64
   0  -5 -11   54.82    1.64
   0  -5 -11   53.29    1.54
   0   5  11   55.79    1.59
   0   5  12  226.59    3.63
   0   5  12  247.77    3.51
   0   5  12  235.60    3.37
   0  -5 -12  241.84    3.49
   0  -5 -12  232.56    3.30
   0   5  13   23.57    1.07
   0   5  13   22.84    1.03
   0   5  13   24.67    1.16
   0  -5 -13   24.25    1.03
   0  -5 -13   23.32    0.91
   0  -5 -13   25.72    1.09
   0  -5 -13   21.95    0.98
   0   5  14   13.02    0.79
   0   5  14   11.76    0.79
   0  -5 -14   11.32    0.72
   0   5  14   10.30    0.70
   0   5  14   12.10    0.69
   0  -5 -14   10.79    0.64
   0  -5 -15   29.34    0.94
   0   5  15   29.39    0.97
   0  -5 -15   26.12    0.76
   0   5  15   29.05    0.95
   0   5  15   27.56    0.84
   0   5  15   27.59    0.90
   0   5  16   10.59    0.47
   0   5  16   10.89    0.54
   0  -5 -16   11.33    0.51
   0   5  16   10.06    0.48
   0  -6  12    0.91    0.28
   0  -6  12    0.46    0.24
   0   6 -12    0.75    0.27
   0  -6  12    0.60    0.23
   0  -6  12    0.74    0.28
   0   6 -11    3.98    0.35
   0  -6  11    5.07    0.44
   0   6 -11    4.08    0.43
   0  -6  11    4.17    0.33
   0  -6  11    5.43    0.47
   0  -6  10    0.21    0.33
   0  -6  10   -0.01    0.27
   0   6 -10    0.09    0.28
   0   6 -10    0.27    0.25
   0  -6   9    6.89    0.65
   0  -6   9    7.71    0.59
   0   6  -9    7.18    0.59
   0   6  -9    7.04    1.31
   0   6  -9    6.68    1.18
   0   6  -8  118.25    4.58
   0   6  -8  112.01    2.22
   0   6  -8  113.02    4.64
   0  -6   8  114.12    2.40
   0  -6   8  120.18    2.35
   0   6  -8  117.13    4.59
   0   6  -7   69.66    3.67
   0  -6   7   68.11    1.86
   0   6  -7   71.10    3.60
   0   6  -7   68.68    3.56
   0   6  -7   65.28    1.68
   0  -6   7   65.86    1.79
   0   6  -6  407.63    4.49
   0  -6   6  371.45    4.71
   0  -6   6  419.19    4.92
   0   6  -6  430.37    8.87
   0   6  -6  437.47    9.06
   0   6  -6  404.75    9.15
   0   6  -6  432.06    8.88
   0   6  -6  425.95    8.08
   0  -6   6  397.81    9.60
   0  -6   5   87.37    4.54
   0   6  -5   90.14    4.14
   0   6  -5   86.51    1.81
   0  -6   5   89.40    4.31
   0   6  -5   91.93    3.99
   0   6  -5   93.89    3.96
   0  -6   5   76.50    1.95
   0  -6   5   87.92    2.02
   0  -6   5   84.51    2.00
   0   6  -5   90.79    3.88
   0   6  -5   85.03    3.38
   0   6  -4   82.69    3.14
   0   6  -4   82.64    3.53
   0  -6   4   80.81    4.10
   0   6  -4   80.91    3.57
   0   6  -4   85.08    3.84
   0   6  -4   78.49    3.55
   0  -6   4   80.79    3.81
   0   6  -3  634.78    9.81
   0  -6   3  632.61   10.28
   0   6  -3  617.30    9.92
   0   6  -3  606.66    9.66
   0  -6   3  617.37   10.99
   0   6  -3  638.82   10.33
   0  -6   2   68.62    3.34
   0   6  -2   71.37    2.95
   0   6  -2   71.16    3.17
   0   6  -2   63.01    2.84
   0   6  -2   70.16    3.01
   0  -6   2   69.05    3.00
   0   6  -1  290.28    3.33
   0  -6   1  308.31    6.77
   0   6  -1  302.18    6.01
   0   6  -1  307.44    6.14
   0   6  -1  284.44    5.72
   0  -6   1  306.56    6.83
   0   6  -1  303.72    6.32
   0  -6   0    6.99    1.09
   0   6   0    6.31    1.00
   0   6   0    7.27    0.92
   0   6   0    7.33    1.00
   0   6   0    7.09    0.49
   0  -6   0    7.77    1.15
   0   6   0    6.73    0.94
   0   6   0    7.32    0.98
   0  -6  -1   16.11    1.50
   0  -6  -1   14.61    1.46
   0   6   1   12.91    1.23
   0   6   1   15.47    1.42
   0   6   1   14.84    1.37
   0   6   1   14.69    1.33
   0   6   2   14.30    1.29
   0  -6  -2   15.70    1.48
   0   6   2   13.64    1.27
   0   6   2   12.76    1.25
   0   6   2   13.85    1.34
   0   6   3   68.92    2.70
   0   6   3   74.89    2.95
   0   6   3   70.97    2.77
   0  -6  -3   72.43    3.00
   0   6   4   92.89    3.33
   0   6   4   89.87    3.13
   0   6   4   87.91    3.06
   0  -6  -4   94.79    3.44
   0   6   4   91.28    3.10
   0   6   5  620.30    8.64
   0   6   5  610.28    5.50
   0   6   5  646.34    8.96
   0   6   5  631.64    8.79
   0  -6  -5  636.61    9.53
   0   6   5  628.69    8.86
   0   6   6   59.88    2.68
   0   6   6   52.87    2.49
   0   6   6   58.05    1.46
   0  -6  -6   54.81    2.77
   0   6   6   56.56    2.52
   0   6   6   56.38    1.31
   0   6   7   14.83    0.80
   0  -6  -7   14.72    1.52
   0   6   7   14.00    0.72
   0   6   7   15.18    1.40
   0   6   8  278.39    3.40
   0   6   8  278.42    3.53
   0   6   8  276.30    5.93
   0  -6  -8  248.66    3.50
   0  -6  -8  265.00    6.41
   0  -6  -8  264.64    3.61
   0   6   8  284.05    3.38
   0  -6  -8  290.04    3.86
   0   6   8  285.04    3.60
   0   6   9   15.51    0.87
   0  -6  -9   14.54    0.86
   0  -6  -9   14.27    0.81
   0   6   9   15.27    0.81
   0   6   9   14.71    0.82
   0   6   9   14.63    0.83
   0  -6  -9   15.86    0.90
   0  -6  -9   14.27    1.59
   0  -6 -10   10.01    0.75
   0   6  10   10.80    0.75
   0  -6 -10    9.92    0.73
   0   6  10   10.07    0.72
   0  -6 -10   10.21    0.75
   0   6  10   11.04    0.79
   0   6  10   10.34    0.75
   0   6  10   12.11    0.78
   0   6  11    0.62    0.43
   0  -6 -11    0.42    0.34
   0   6  11    0.36    0.41
   0   6  11    1.34    0.48
   0  -6 -11    0.35    0.36
   0  -6 -12  338.69    4.15
   0  -6 -12  321.78    4.01
   0   6  12  324.60    4.02
   0   6  12  319.40    3.93
   0   6  12  306.57    4.13
   0  -6 -13   80.82    1.79
   0   6  13   78.64    1.76
   0   6  13   79.81    1.77
   0   6  13   80.03    1.88
   0  -6 -13   81.64    1.70
   0  -6 -13   82.57    1.82
   0  -6 -14   98.62    1.78
   0  -6 -14   99.00    1.82
   0   6  14   99.68    1.91
   0   6  14   98.76    1.81
   0  -6 -14   94.10    1.57
   0   6  15   19.26    0.69
   0   6  15   20.44    0.74
   0   6  15   20.88    0.77
   0   6  15   20.40    0.66
   0  -6 -15   19.63    0.65
   0   6  16   21.52    0.59
   0  -6 -16   19.56    0.55
   0  -7  11    0.06    0.25
   0   7 -11    0.14    0.22
   0  -7  11   -0.20    0.29
   0  -7  11    0.20    0.22
   0  -7  10    4.31    0.45
   0  -7  10    3.80    0.38
   0  -7  10    3.64    0.30
   0  -7  10    4.06    0.37
   0  -7  10    3.74    0.40
   0   7 -10    3.86    0.37
   0   7  -9    0.51    0.32
   0  -7   9    0.09    0.35
   0  -7   9   -0.08    0.34
   0  -7   9    0.54    0.25
   0  -7   9    0.51    0.31
   0  -7   8    8.22    0.69
   0   7  -8    6.50    1.14
   0  -7   8    7.74    0.60
   0  -7   8    7.84    0.56
   0   7  -7    2.17    0.97
   0  -7   7    4.14    0.54
   0   7  -7    3.15    1.04
   0  -7   7    4.59    0.50
   0   7  -7    4.00    1.02
   0  -7   6   16.47    0.88
   0   7  -6   16.91    1.80
   0   7  -6   17.21    1.82
   0  -7   6   18.10    0.95
   0  -7   6   19.09    0.96
   0   7  -6   18.73    1.89
   0  -7   5  226.93    3.57
   0  -7   5  242.48    3.63
   0   7  -5  247.77    6.58
   0  -7   5  249.82    3.45
   0   7  -5  261.80    6.84
   0   7  -5  238.69    6.54
   0  -7   5  246.29    3.52
   0  -7   5  262.03    3.29
   0   7  -4   20.12    1.91
   0  -7   4   20.78    1.06
   0   7  -4   21.67    2.05
   0  -7   4   20.50    0.96
   0  -7   4   21.58    0.93
   0   7  -4   20.14    1.90
   0  -7   4   20.39    1.02
   0   7  -4   21.68    2.12
   0  -7   4   19.34    1.03
   0  -7   3   13.90    1.84
   0  -7   3   12.36    0.82
   0   7  -3   14.22    1.64
   0  -7   3   13.84    0.81
   0  -7   3   12.91    0.85
   0  -7   3   14.21    0.77
   0  -7   3   12.62    0.80
   0  -7   3   14.37    0.82
   0   7  -3   13.28    0.80
   0   7  -3   11.89    1.46
   0   7  -3   14.00    1.66
   0  -7   3   13.85    0.79
   0   7  -3   12.93    1.49
   0   7  -2  202.13    5.60
   0  -7   2  200.50    3.04
   0  -7   2  205.52    2.93
   0   7  -2  203.37    5.64
   0  -7   2  188.42    3.16
   0  -7   2  206.64    3.09
   0  -7   2  210.46    6.54
   0   7  -2  190.60    5.22
   0  -7   2  189.93    3.19
   0  -7   2  201.05    2.95
   0   7  -2  207.06    5.87
   0   7  -2  198.20    2.92
   0   7  -2  202.34    5.55
   0  -7   2  202.33    3.04
   0  -7   1    1.73    0.36
   0   7  -1    0.41    0.52
   0  -7   1    0.69    0.71
   0   7  -1    1.31    0.74
   0  -7   1    0.82    0.33
   0   7  -1    1.17    0.32
   0  -7   1    0.50    0.35
   0   7  -1    0.45    0.54
   0  -7   1    2.22    0.36
   0   7  -1    0.60    0.48
   0  -7   1    0.82    0.33
   0   7  -1    0.22    0.65
   0   7   0    0.02    0.52
   0   7   0   -0.30    0.51
   0   7   0   -0.76    0.74
   0   7   0    0.30    0.58
   0  -7   0    0.05    0.55
   0  -7   0   -0.50    0.63
   0  -7  -1  255.03    6.54
   0  -7  -1  257.89    6.59
   0   7   1  273.28    6.05
   0   7   1  253.69    6.19
   0   7   1  260.91    5.95
   0   7   1  257.90    6.03
   0   7   2  165.73    4.70
   0   7   2  160.02    4.79
   0  -7  -2  159.92    5.17
   0   7   2  166.01    4.67
   0  -7  -2  158.31    5.02
   0   7   2  158.64    4.49
   0   7   3   10.60    0.65
   0  -7  -3    9.01    1.38
   0   7   3   11.38    1.37
   0   7   3   11.32    1.28
   0  -7  -3   12.04    1.46
   0   7   3   12.69    1.35
   0   7   3   11.40    1.30
   0  -7  -4  307.58    7.01
   0   7   4  304.73    6.33
   0   7   4  304.52    6.54
   0   7   4  314.10    6.40
   0   7   4  304.05    3.57
   0   7   5  342.49    4.03
   0   7   5  350.75    6.84
   0   7   5  354.03    6.95
   0   7   5  347.25    3.89
   0   7   5  359.73    7.11
   0  -7  -5  352.15    7.61
   0  -7  -5  356.08    4.43
   0   7   6  511.31    5.21
   0  -7  -6  510.57    5.59
   0  -7  -6  520.87    5.60
   0   7   6  514.15    8.62
   0   7   6  504.33    8.41
   0   7   6  517.33    4.88
   0  -7  -6  498.57    9.30
   0   7   7  250.70    3.18
   0   7   7  252.93    3.41
   0  -7  -7  250.26    3.73
   0   7   7  249.26    3.46
   0  -7  -7  244.26    3.65
   0   7   7  240.80    5.67
   0   7   8   75.30    1.80
   0   7   8   75.33    1.70
   0  -7  -8   72.92    1.90
   0   7   8   71.91    1.84
   0  -7  -8   75.87    2.00
   0   7   8   75.63    1.72
   0   7   8   73.99    1.80
   0   7   8   70.17    3.12
   0  -7  -9   38.13    1.44
   0   7   9   36.77    1.23
   0   7   9   37.81    1.25
   0   7   9   37.65    1.32
   0   7   9   35.73    1.28
   0   7  10  218.31    3.09
   0   7  10  228.14    3.22
   0  -7 -10  228.06    3.48
   0   7  10  220.21    3.21
   0  -7 -10  232.55    3.49
   0   7  10  218.18    3.21
   0   7  10  216.64    3.11
   0   7  10  220.55    3.30
   0  -7 -11    1.60    0.37
   0   7  11   -0.42    0.46
   0   7  11    0.34    0.46
   0  -7 -11   -0.02    0.46
   0   7  11    0.15    0.40
   0  -7 -11    0.29    0.33
   0  -7 -12  285.35    3.68
   0   7  12  265.15    3.52
   0   7  12  276.33    3.49
   0  -7 -12  267.14    3.37
   0  -7 -12  286.94    3.60
   0  -7 -12  267.28    3.31
   0   7  12  265.87    3.38
   0  -7 -13  162.44    2.49
   0   7  13  152.06    2.35
   0   7  13  154.79    2.34
   0   7  13  156.95    2.34
   0  -7 -13  160.28    2.35
   0  -7 -14    0.01    0.33
   0  -7 -14   -0.11    0.27
   0   7  14    0.28    0.30
   0   7  14   -0.04    0.27
   0   7  14    0.18    0.27
   0   7  15   10.55    0.52
   0   7  15    9.78    0.42
   0  -7 -15   10.08    0.48
   0  -7 -15   10.40    0.48
   0   7  15    9.70    0.44
   0  -8   9   51.96    1.13
   0  -8   9   52.76    1.05
   0  -8   9   53.95    1.09
   0  -8   8    1.51    0.35
   0  -8   8    1.72    0.29
   0  -8   8    1.56    0.39
   0  -8   8    1.61    0.40
   0  -8   7   76.09    1.52
   0  -8   7   79.42    1.69
   0  -8   7   81.54    1.74
   0  -8   7   78.82    1.74
   0  -8   6    0.86    0.35
   0  -8   6    0.33    0.39
   0  -8   6   -0.16    0.40
   0  -8   6    0.12    0.43
   0   8  -6    0.14    0.30
   0  -8   5   29.77    1.18
   0   8  -5   29.29    2.29
   0   8  -5   27.22    2.12
   0  -8   5   28.55    1.18
   0  -8   5   29.27    1.10
   0   8  -5   26.63    1.09
   0  -8   5   29.39    1.18
   0  -8   4    1.06    0.41
   0  -8   4    0.04    0.36
   0   8  -4    0.11    0.29
   0  -8   4    0.38    0.40
   0  -8   4    0.50    0.44
   0  -8   4   -0.10    0.35
   0  -8   4    0.13    0.35
   0   8  -4   -0.14    0.67
   0  -8   4    0.19    0.31
   0  -8   3   -0.10    0.38
   0   8  -3    0.88    0.34
   0  -8   3    0.25    0.36
   0  -8   3    0.48    0.34
   0  -8   3    0.08    0.38
   0  -8   3    0.34    0.32
   0  -8   3    0.08    0.35
   0  -8   2   10.75    0.83
   0  -8   2   12.90    0.79
   0  -8   2   13.42    0.84
   0  -8   2   12.42    0.82
   0  -8   2   12.32    0.81
   0  -8   2   10.54    0.80
   0   8  -2   11.33    0.72
   0   8  -2   10.30    1.44
   0   8  -2   12.39    1.46
   0   8  -2   12.25    1.67
   0  -8   2   11.53    0.78
   0  -8   1   73.30    1.84
   0  -8   1   74.48    1.90
   0  -8   1   65.97    1.91
   0   8  -1   74.94    3.48
   0  -8   1   73.42    1.77
   0   8  -1   70.79    3.54
   0   8  -1   71.66    3.61
   0  -8   1   68.36    1.73
   0  -8   1   69.78    1.80
   0   8  -1   73.09    3.45
   0  -8   0  586.64    5.89
   0  -8   0  594.97    5.90
   0  -8   0  577.50    6.01
   0  -8   0  634.22   11.88
   0  -8   0  572.62    6.09
   0   8   0  601.54   10.54
   0  -8   0  581.96    6.33
   0   8   0  587.94   10.25
   0   8   0  644.64   10.43
   0  -8   0  601.99    5.81
   0   8   0  638.06   10.38
   0   8   1    9.07    1.32
   0  -8  -1    8.57    0.66
   0  -8  -1    9.24    0.76
   0  -8  -1    8.95    0.68
   0  -8  -1    9.63    0.80
   0  -8  -1    9.06    0.75
   0   8   1    8.60    1.22
   0   8   1    8.46    1.27
   0   8   1   10.47    1.50
   0  -8  -1    8.34    1.44
   0  -8  -1   10.18    1.56
   0  -8  -2  189.77    3.29
   0  -8  -2  206.06    6.38
   0  -8  -2  187.58    3.10
   0   8   2  201.46    5.75
   0   8   2  204.26    2.99
   0   8   2  201.71    5.49
   0   8   2  206.52    5.85
   0   8   2  207.00    5.71
   0  -8  -2  200.16    6.29
   0  -8  -3  142.65    5.24
   0  -8  -3  132.53    2.56
   0   8   3  137.18    4.60
   0   8   3  141.37    4.75
   0   8   3  141.44    4.55
   0   8   3  134.64    2.39
   0   8   3  140.63    4.77
   0  -8  -3  131.13    2.53
   0  -8  -3  135.26    5.08
   0   8   3  144.23    4.61
   0  -8  -3  135.23    2.74
   0   8   4    9.19    1.23
   0  -8  -4    9.93    1.48
   0  -8  -4    7.60    0.69
   0  -8  -4    9.35    0.68
   0   8   4    7.72    1.16
   0  -8  -4    9.46    0.79
   0   8   4    7.95    1.19
   0   8   4    8.80    1.29
   0  -8  -4    7.00    1.24
   0  -8  -4    9.84    0.73
   0   8   4    8.71    0.62
   0  -8  -5  676.71    6.84
   0   8   5  659.62    6.27
   0  -8  -5  670.91   11.91
   0  -8  -5  656.43    6.22
   0  -8  -5  655.90    6.06
   0  -8  -5  612.02    6.52
   0  -8  -5  625.40   11.26
   0   8   5  661.40   10.26
   0   8   5  680.53   10.34
   0   8   6  592.07    9.51
   0   8   6  590.04    9.69
   0  -8  -6  575.37    5.59
   0   8   6  606.93    5.92
   0  -8  -6  553.52    5.44
   0  -8  -6  573.72    6.21
   0   8   6  589.62    5.52
   0  -8  -6  595.35    6.32
   0  -8  -7   -0.01    0.38
   0  -8  -7    0.38    0.40
   0   8   7    0.36    0.43
   0  -8  -7    0.58    0.44
   0   8   7    0.64    0.58
   0   8   7    1.01    0.43
   0  -8  -8   15.53    0.91
   0   8   8   18.96    0.94
   0   8   8   18.19    0.90
   0   8   8   18.25    0.88
   0  -8  -8   16.69    0.97
   0  -8  -8   17.73    1.05
   0   8   8   17.86    0.99
   0   8   8   17.79    0.93
   0   8   8   15.84    1.54
   0   8   9    1.08    0.42
   0  -8  -9    0.80    0.44
   0  -8  -9    2.33    0.55
   0   8   9    1.67    0.44
   0   8   9    1.84    0.46
   0   8   9    1.12    0.39
   0   8  10  132.35    2.40
   0  -8 -10  133.67    2.59
   0  -8 -10  129.00    2.47
   0   8  10  131.39    2.34
   0   8  10  128.36    2.35
   0   8  10  126.66    2.25
   0   8  10  127.84    2.23
   0   8  11    3.31    0.47
   0  -8 -11    4.07    0.60
   0   8  11    3.77    0.57
   0  -8 -11    3.56    0.56
   0   8  11    2.89    0.49
   0  -8 -11    2.89    0.49
   0  -8 -12    0.30    0.30
   0  -8 -12    0.22    0.28
   0   8  12    0.14    0.36
   0  -8 -12    0.11    0.38
   0  -8 -12   -0.33    0.31
   0   8  12    0.16    0.33
   0  -8 -12    0.03    0.40
   0   8  13    7.34    0.52
   0  -8 -13    7.51    0.46
   0   8  13    8.56    0.51
   0  -8 -13    7.67    0.47
   0  -8 -13    8.60    0.57
   0  -8 -13    8.60    0.55
   0   8  14   29.63    0.71
   0   8  14   29.10    0.72
   0  -8 -14   31.23    0.83
   0  -8 -14   29.50    0.74
   0  -9   8    7.41    0.42
   0  -9   8    6.95    0.42
   0  -9   8    9.20    0.46
   0  -9   8    8.82    0.41
   0  -9   7  262.73    2.67
   0  -9   7  234.38    2.53
   0  -9   7  268.96    2.75
   0  -9   7  233.35    2.32
   0  -9   7  251.98    2.71
   0  -9   6   24.33    0.90
   0  -9   6   22.91    0.86
   0  -9   6   23.84    0.86
   0  -9   5   63.56    1.49
   0  -9   5   66.88    1.54
   0  -9   5   65.18    1.38
   0   9  -5   48.97    1.27
   0  -9   5   67.63    1.57
   0   9  -5   51.61    1.29
   0   9  -4    7.91    1.25
   0  -9   4   10.20    0.63
   0   9  -4    7.95    0.58
   0  -9   4   10.36    0.64
   0  -9   4   11.32    0.75
   0  -9   4   10.98    0.77
   0  -9   4   10.11    0.69
   0  -9   3   44.81    1.29
   0  -9   3   43.69    1.30
   0  -9   3   46.20    1.42
   0  -9   3   42.81    1.30
   0  -9   3   43.45    1.33
   0  -9   3   44.10    1.38
   0  -9   3   41.63    1.27
   0  -9   2   17.94    0.92
   0   9  -2   13.68    1.67
   0  -9   2   15.92    0.80
   0  -9   2   15.50    0.83
   0  -9   2   16.92    0.91
   0  -9   2   15.98    0.88
   0  -9   2   17.19    0.91
   0  -9   1  128.84    2.32
   0  -9   1  148.25    2.59
   0  -9   1  139.56    2.53
   0  -9   1  122.14    2.41
   0   9  -1  142.53    5.00
   0   9  -1  138.79    4.66
   0  -9   1  139.89    2.59
   0  -9   0   24.00    1.11
   0   9   0   24.73    2.18
   0  -9   0   21.76    1.06
   0  -9   0   24.08    1.13
   0   9   0   24.51    1.99
   0   9   1  552.68    5.45
   0  -9  -1  533.28    5.76
   0  -9  -1  520.65    5.85
   0   9   1  585.93   10.32
   0  -9  -1  528.52    5.61
   0   9   1  582.58    9.86
   0   9   2  129.49    4.48
   0   9   2  131.44    4.75
   0  -9  -2  109.91    2.48
   0  -9  -2  114.00    2.42
   0   9   2  129.60    4.47
   0   9   2  125.98    2.29
   0  -9  -2  119.71    2.40
   0   9   3   63.92    1.59
   0   9   3   63.05    3.14
   0  -9  -3   63.21    1.72
   0   9   3   61.73    3.11
   0   9   3   65.44    3.16
   0  -9  -3   61.90    1.88
   0  -9  -3   63.55    1.72
   0  -9  -3   63.09    1.78
   0   9   4    9.14    1.29
   0  -9  -4    8.06    0.73
   0   9   4    8.03    1.20
   0   9   4    6.96    1.15
   0  -9  -4    9.33    0.81
   0  -9  -4    7.86    0.70
   0  -9  -4    8.45    0.70
   0   9   4    8.80    0.65
   0   9   4    8.56    0.72
   0  -9  -5  516.13    5.39
   0  -9  -5  540.74    5.36
   0  -9  -5  555.76    6.11
   0  -9  -5  542.34    5.51
   0   9   5  555.97    5.62
   0   9   5  529.36    9.25
   0   9   5  556.81    9.39
   0  -9  -6   43.91    1.44
   0  -9  -6   52.74    1.73
   0   9   6   51.59    1.42
   0  -9  -6   50.46    1.44
   0  -9  -6   47.77    1.61
   0  -9  -6   49.20    1.38
   0   9   6   52.59    1.51
   0   9   6   51.12    1.54
   0   9   6   47.19    2.61
   0  -9  -7  182.70    3.16
   0   9   7  191.49    2.89
   0   9   7  185.27    2.96
   0  -9  -7  194.08    3.27
   0   9   7  192.13    2.75
   0   9   8    2.90    0.52
   0  -9  -8    2.90    0.56
   0   9   8    3.55    0.49
   0   9   8    2.98    0.48
   0   9   8    3.42    0.49
   0  -9  -8    2.62    0.45
   0  -9  -8    2.38    0.50
   0   9   9   60.20    1.54
   0   9   9   58.08    1.42
   0   9   9   61.19    1.47
   0  -9  -9   60.11    1.64
   0   9   9   61.39    1.54
   0  -9  -9   62.70    1.75
   0   9  10   60.89    1.48
   0  -9 -10   60.92    1.57
   0   9  10   58.42    1.45
   0   9  10   55.88    1.35
   0   9  10   60.91    1.45
   0   9  10   56.97    1.39
   0  -9 -10   59.21    1.62
   0  -9 -10   55.08    1.44
   0  -9 -11  115.07    2.04
   0   9  11  110.92    1.84
   0  -9 -11  110.91    1.93
   0  -9 -11  115.33    2.02
   0  -9 -12    0.90    0.26
   0  -9 -12    1.62    0.38
   0  -9 -12    1.44    0.32
   0  -9 -12    1.78    0.29
   0   9  12    1.66    0.32
   0   9  12    1.85    0.37
   0  -9 -12    1.65    0.37
   0   9  13    0.03    0.24
   0  -9 -13    0.34    0.30
   0  -9 -13   -0.04    0.31
   0   9  13    0.21    0.29
   0  -9 -13    0.02    0.22
   0 -10   6   11.75    0.48
   0 -10   5   44.37    0.97
   0 -10   5   44.39    0.96
   0 -10   4    0.17    0.33
   0 -10   4    0.17    0.21
   0 -10   3    1.13    0.31
   0  10  -3    0.40    0.25
   0 -10   2    2.84    0.37
   0 -10   2    3.80    0.48
   0 -10   2    3.37    0.45
   0 -10   1   10.26    0.69
   0 -10   1   11.98    0.75
   0 -10   1   11.21    0.66
   0 -10   0   21.38    0.97
   0  10   0   18.77    0.81
   0 -10   0   24.67    1.05
   0 -10   0   22.27    0.93
   0 -10   0   22.23    0.82
   0  10   0   21.19    1.84
   0  10   1  240.26    6.09
   0 -10  -1  234.77    3.06
   0 -10  -1  224.48    3.23
   0 -10  -1  227.93    3.30
   0 -10  -1  231.88    3.33
   0 -10  -2    8.88    0.74
   0 -10  -2   10.98    0.84
   0 -10  -2    8.63    0.73
   0 -10  -2    8.76    0.66
   0  10   2    8.01    0.60
   0  10   2    7.44    1.15
   0  10   3  335.81    3.78
   0  10   3  343.64    4.00
   0 -10  -3  330.98    3.59
   0  10   3  344.97    7.02
   0 -10  -3  340.39    4.02
   0  10   4   38.74    1.27
   0 -10  -4   38.14    1.31
   0 -10  -4   34.85    1.21
   0  10   4   37.32    2.30
   0 -10  -4   38.97    1.26
   0 -10  -4   36.38    1.40
   0 -10  -5    1.90    0.45
   0  10   5    1.85    0.42
   0  10   5    1.89    0.42
   0 -10  -5    2.54    0.46
   0 -10  -5    2.00    0.44
   0  10   6    1.32    0.39
   0  10   6    1.44    0.38
   0 -10  -6    1.57    0.41
   0 -10  -6    1.33    0.41
   0 -10  -6    1.47    0.37
   0  10   6    1.23    0.39
   0 -10  -7   19.64    0.85
   0 -10  -7   19.81    0.96
   0  10   7   22.06    0.92
   0  10   7   21.51    0.88
   0  10   7   22.06    0.86
   0  10   7   22.15    0.87
   0 -10  -8    5.37    0.51
   0 -10  -8    6.57    0.61
   0  10   8    6.39    0.53
   0  10   8    6.53    0.57
   0  10   8    7.09    0.54
   0  10   8    6.63    0.52
   0 -10  -9    5.73    0.52
   0  10   9    6.07    0.49
   0  10   9    6.20    0.53
   0 -10  -9    5.66    0.57
   0  10   9    5.73    0.48
   0  10   9    5.66    0.51
   0  10  10   18.01    0.68
   0  10  10   19.30    0.74
   0 -10 -10   18.40    0.82
   0  10  10   18.53    0.73
   0 -10 -10   17.98    0.76
   0 -10 -10   17.07    0.64
   0 -10 -11   29.03    0.85
   0  10  11   28.76    0.79
   0 -10 -11   28.14    0.87
   0  10  11   28.76    0.73
   0  10  12  138.29    1.52
   0 -10 -12  147.13    1.66
   0 -11   3   12.47    0.51
   0 -11   2    0.29    0.23
   0 -11   2    0.32    0.30
   0  11  -2    0.04    0.20
   0 -11   2    0.35    0.26
   0 -11   1    1.00    0.32
   0 -11   1    1.16    0.26
   0 -11   1    0.84    0.23
   0  11  -1    0.92    0.23
   0 -11   0   38.50    0.92
   0 -11   0   37.93    1.04
   0 -11   0   37.81    0.98
   0 -11  -1   66.26    1.32
   0  11   1   63.72    1.32
   0 -11  -1   65.73    1.41
   0 -11  -1   64.59    1.28
   0 -11  -2   23.12    0.76
   0 -11  -2   22.54    0.90
   0 -11  -2   22.98    0.88
   0  11   2   21.88    0.81
   0 -11  -2   23.87    0.84
   0 -11  -3   57.83    1.37
   0  11   3   59.68    1.32
   0 -11  -3   56.66    1.31
   0 -11  -3   59.28    1.36
   0 -11  -3   54.94    1.08
   0 -11  -4   70.66    1.44
   0  11   4   74.21    1.48
   0  11   4   77.77    1.48
   0  11   4   69.88    1.39
   0 -11  -4   73.61    1.52
   0 -11  -4   76.71    1.50
   0  11   5  176.58    2.25
   0  11   5  167.36    2.27
   0  11   6   52.26    1.18
   0 -11  -6   44.49    0.90
   0  11   6   51.76    1.12
   0  11   6   51.01    1.13
   0 -11  -6   41.18    1.11
   0 -11  -7    0.16    0.30
   0 -11  -7    0.20    0.28
   0  11   7   -0.05    0.26
   0  11   7   -0.06    0.25
   0  11   7   -0.17    0.31
   0  11   8    1.15    0.33
   0  11   8    1.19    0.30
   0  11   8    1.19    0.33
   0  11   8    1.11    0.27
   0 -11  -8    0.95    0.32
   0 -11  -8    1.17    0.26
   0  11   9   18.60    0.60
   0 -11  -9   18.28    0.69
   0  11   9   17.94    0.63
   0  11   9   18.13    0.64
   0  11  10    5.74    0.36
   0 -12  -2   16.73    0.50
   0 -12  -3   48.32    0.85
   0 -12  -3   47.75    0.79
   0  12   4  180.37    1.76
   0 -12  -4  185.48    1.82
   0  12   5   39.04    0.73
   0  12   5   37.22    0.74
   0 -12  -5   38.01    0.75
  -1  11   9   66.10    0.95
  -1  11   9   51.68    0.90
  -1  11   8   15.22    0.54
  -1  11   8   15.04    0.59
  -1  11   8   14.53    0.50
  -1  11   7    0.28    0.30
   1 -11  -7    0.05    0.20
   1 -11  -7    0.55    0.28
  -1  11   7    0.14    0.24
  -1  11   7    0.04    0.26
   1 -11  -6  104.01    1.54
  -1  11   6  116.38    1.55
  -1  11   6  118.13    1.62
   1 -11  -6  104.43    1.38
  -1  11   5   19.96    0.67
  -1  11   5   19.75    0.62
   1 -11  -5   18.25    0.64
  -1  11   5   19.68    0.70
   1 -11  -4   14.92    0.68
  -1  11   4   16.70    0.60
  -1  11   3   46.43    0.99
   1 -11  -3   43.36    1.08
   1 -11  -3   44.37    0.95
   1 -11  -2   36.95    0.99
  -1  11   2   35.12    0.86
   1 -11  -2   34.05    0.88
   1 -11  -1   12.99    0.60
   1 -11  -1   13.32    0.62
   1 -11   0   19.29    0.67
   1 -11   0   19.84    0.70
   1 -11   1    9.25    0.51
   1 -11   1    8.76    0.39
   1 -11   2    0.43    0.31
   1 -10 -11   87.12    1.20
  -1  10  11  115.23    1.46
  -1  10  11   75.90    1.26
   1 -10 -11  117.50    1.55
  -1  10  11   92.66    1.21
  -1  10  10    9.71    0.54
   1 -10 -10    8.34    0.51
   1 -10 -10    9.83    0.58
  -1  10   9    2.49    0.41
   1 -10  -9    2.02    0.43
   1 -10  -9    2.32    0.40
  -1  10   9    2.29    0.33
  -1  10   9    2.32    0.37
  -1  10   8   89.23    1.61
   1 -10  -8   83.77    1.82
  -1  10   8   90.46    1.51
  -1  10   8   90.41    1.53
  -1  10   8   90.84    1.63
   1 -10  -8   84.36    1.40
  -1  10   8   90.04    1.67
   1 -10  -7   37.85    1.28
   1 -10  -7   38.02    1.13
  -1  10   7   46.45    1.13
  -1  10   7   46.25    1.20
  -1  10   7   45.63    1.13
   1 -10  -7   39.58    0.95
  -1  10   7   44.63    1.18
   1 -10  -7   41.07    1.10
   1 -10  -6    2.15    0.44
   1 -10  -6    1.92    0.44
   1 -10  -6    2.82    0.40
  -1  10   6    3.63    0.43
  -1  10   6    2.69    0.44
  -1  10   6    2.35    0.37
   1 -10  -5  108.69    2.18
  -1  10   5  127.26    2.12
  -1  10   5  130.68    2.06
   1 -10  -5  111.10    2.03
  -1  10   5  130.66    2.13
  -1  10   4   56.71    1.41
   1 -10  -4   52.05    1.42
   1 -10  -4   52.71    1.25
   1 -10  -4   55.00    1.46
  -1  10   4   56.20    1.40
   1 -10  -4   59.51    1.53
   1 -10  -3  286.12    3.69
   1 -10  -3  298.88    3.68
  -1  10   3  309.35    3.51
   1 -10  -3  296.77    3.35
   1 -10  -3  282.10    3.52
   1 -10  -2   10.20    0.68
   1 -10  -2   11.51    0.79
   1 -10  -2   11.10    0.81
   1 -10  -2   11.17    0.75
  -1  10   2   10.19    0.64
   1 -10  -1    0.27    0.30
  -1  10   1    0.52    0.30
   1 -10  -1    0.21    0.42
   1 -10  -1    0.56    0.40
   1 -10  -1    0.44    0.44
   1 -10   0   44.86    1.28
   1 -10   0   44.45    1.32
   1 -10   0   44.88    1.15
   1 -10   0   48.62    1.29
   1 -10   1    5.95    0.58
   1 -10   1    6.24    0.52
   1 -10   1    6.77    0.55
   1 -10   1    7.67    0.60
   1 -10   2    8.75    0.57
   1 -10   2    9.53    0.59
   1 -10   2    9.28    0.54
   1 -10   2    9.43    0.64
   1 -10   3   31.31    0.92
   1 -10   3   33.70    0.98
   1 -10   4    8.68    0.52
   1 -10   4    9.06    0.52
   1 -10   5    5.36    0.38
   1 -10   5    5.62    0.44
   1  -9 -13   19.16    0.59
   1  -9 -13   18.33    0.58
   1  -9 -12   17.69    0.71
   1  -9 -12   13.65    0.51
   1  -9 -12   15.40    0.56
   1  -9 -12   16.43    0.67
  -1   9  12   14.07    0.51
  -1   9  12   15.93    0.65
   1  -9 -11   16.33    0.65
   1  -9 -11   16.55    0.76
   1  -9 -11   18.43    0.82
   1  -9 -11   15.46    0.66
   1  -9 -11   19.32    0.83
  -1   9  11   17.73    0.75
  -1   9  11   18.02    0.64
  -1   9  11   14.88    0.96
   1  -9 -10   -0.09    0.36
  -1   9  10    0.18    0.32
   1  -9 -10    0.13    0.39
   1  -9 -10    0.17    0.38
   1  -9 -10   -0.17    0.27
  -1   9  10   -0.04    0.38
  -1   9  10    0.01    0.33
  -1   9  10    0.06    0.28
   1  -9  -9   14.35    0.91
  -1   9   9   13.72    0.74
  -1   9   9   13.57    0.69
   1  -9  -9   14.14    0.84
  -1   9   9   14.22    0.71
  -1   9   9   14.07    0.76
  -1   9   9   12.58    0.76
   1  -9  -9   12.46    0.74
  -1   9   8    1.71    0.44
  -1   9   8    1.70    0.45
  -1   9   8    2.58    0.39
   1  -9  -8    1.94    0.54
   1  -9  -8    2.04    0.43
  -1   9   8    1.71    0.38
   1  -9  -8    1.69    0.46
  -1   9   7   46.16    1.28
  -1   9   7   47.04    1.36
   1  -9  -7   39.66    1.35
  -1   9   7   48.21    1.35
   1  -9  -7   43.44    1.51
  -1   9   7   47.63    1.31
   1  -9  -7   39.64    1.25
   1  -9  -6    4.45    0.58
  -1   9   6    4.57    0.58
  -1   9   6    4.55    0.49
   1  -9  -6    3.57    0.58
  -1   9   6    4.37    0.52
  -1   9   5  341.75    3.90
  -1   9   5  332.59    7.18
   1  -9  -5  339.88    4.02
  -1   9   5  335.32    3.98
  -1   9   5  336.45    7.23
   1  -9  -5  336.97    4.07
   1  -9  -4  187.80    3.17
   1  -9  -4  201.39    2.77
  -1   9   4  203.40    5.57
  -1   9   4  200.44    2.98
   1  -9  -4  203.04    3.11
   1  -9  -4  203.82    3.15
  -1   9   4  202.62    5.63
   1  -9  -3    1.79    0.54
  -1   9   3    0.31    0.37
  -1   9   3    1.00    0.80
   1  -9  -3    1.15    0.39
   1  -9  -3    1.24    0.33
   1  -9  -3    1.29    0.48
  -1   9   3    0.24    0.71
  -1   9   3    1.51    0.76
   1  -9  -3    0.63    0.39
  -1   9   2   15.99    1.65
   1  -9  -2   15.83    0.96
   1  -9  -2   15.86    0.86
  -1   9   2   16.01    1.67
   1  -9  -2   15.75    0.74
  -1   9   2   15.95    1.67
   1  -9  -2   15.89    0.92
   1  -9  -1    1.16    0.49
  -1   9   1    2.19    0.74
   1  -9  -1    2.19    0.54
   1  -9  -1    1.78    0.49
  -1   9   1    2.69    0.89
   1  -9  -1    1.12    0.38
  -1   9   1    2.76    0.80
   1  -9  -1    1.19    0.35
  -1   9   0  320.54    7.20
   1  -9   0  306.81    4.04
   1  -9   0  282.89    3.84
   1  -9   0  316.13    3.84
   1  -9   0  297.27    3.40
  -1   9   0  297.53    6.92
   1  -9   1   39.61    1.29
   1  -9   1   38.94    1.26
   1  -9   1   41.25    1.35
   1  -9   1   42.04    1.42
   1  -9   1   38.41    1.31
   1  -9   2  201.22    2.96
   1  -9   2  194.90    2.98
   1  -9   2  199.23    2.75
   1  -9   2  193.73    2.90
   1  -9   2  190.41    2.89
   1  -9   3    1.01    0.35
   1  -9   3    1.48    0.45
   1  -9   3    1.66    0.41
   1  -9   3    1.50    0.39
   1  -9   3    2.46    0.49
   1  -9   4    2.74    0.48
   1  -9   4    2.95    0.49
   1  -9   4    3.33    0.49
   1  -9   4    3.10    0.47
   1  -9   4    2.80    0.41
   1  -9   5    5.13    0.51
   1  -9   5    4.61    0.47
   1  -9   5    3.63    0.42
   1  -9   5    4.54    0.51
   1  -9   5    4.76    0.48
   1  -9   6    7.94    0.50
   1  -9   6    8.34    0.55
   1  -9   6    7.16    0.46
   1  -9   6    7.84    0.54
   1  -9   6    6.72    0.47
   1  -9   6    7.47    0.55
   1  -9   7   15.02    0.61
   1  -9   7   14.96    0.61
   1  -9   7   14.51    0.60
   1  -8 -14   23.77    0.68
  -1   8  14   23.45    0.64
   1  -8 -14   23.69    0.66
   1  -8 -13   24.81    0.81
   1  -8 -13   26.01    0.83
   1  -8 -13   25.35    0.85
   1  -8 -13   22.87    0.71
  -1   8  13   23.38    0.79
  -1   8  12  103.86    1.64
  -1   8  12  102.41    1.81
   1  -8 -12   96.81    1.68
   1  -8 -12  102.31    1.54
  -1   8  12   92.20    1.62
   1  -8 -12  111.47    1.97
   1  -8 -12  112.31    1.95
  -1   8  11    7.23    0.69
  -1   8  11    6.38    0.51
   1  -8 -11    6.85    0.66
  -1   8  11    6.64    0.58
   1  -8 -11    7.35    0.66
   1  -8 -11    6.58    0.52
  -1   8  11    6.17    0.61
   1  -8 -11    6.06    0.61
   1  -8 -10    0.51    0.44
  -1   8  10    2.00    1.19
  -1   8  10    0.57    0.43
  -1   8  10    0.88    0.47
  -1   8  10    0.56    0.42
   1  -8 -10    0.79    0.45
  -1   8  10    1.02    0.36
   1  -8 -10    0.69    0.48
  -1   8   9  182.44    2.78
   1  -8  -9  186.88    3.20
   1  -8  -9  172.02    2.93
   1  -8  -9  183.22    3.08
  -1   8   9  174.38    2.61
  -1   8   9  183.71    2.73
  -1   8   9  186.59    2.79
  -1   8   9  184.42    2.83
  -1   8   8    0.20    0.33
   1  -8  -8    0.69    0.47
  -1   8   8   -0.28    0.63
   1  -8  -8    0.65    0.47
   1  -8  -8    0.47    0.37
  -1   8   8    0.59    0.40
  -1   8   8    0.73    0.35
  -1   8   8    1.47    0.46
   1  -8  -7    7.29    0.71
  -1   8   7    7.36    0.61
  -1   8   7    6.94    0.64
   1  -8  -7    6.25    0.64
  -1   8   7    7.20    0.67
  -1   8   7    5.87    1.07
   1  -8  -7    6.79    0.72
   1  -8  -6   73.00    1.91
  -1   8   6   78.76    1.79
  -1   8   6   75.29    3.38
  -1   8   6   77.97    3.47
   1  -8  -6   73.47    2.02
   1  -8  -6   77.68    1.78
   1  -8  -6   71.85    1.81
  -1   8   6   76.67    1.78
  -1   8   6   79.72    1.85
   1  -8  -6   78.55    1.77
   1  -8  -5   41.83    1.52
   1  -8  -5   44.70    1.38
  -1   8   5   47.98    2.72
  -1   8   5   46.66    2.72
   1  -8  -5   45.26    1.49
   1  -8  -5   48.13    1.67
   1  -8  -5   47.40    1.44
  -1   8   5   49.93    1.45
   1  -8  -4    8.28    0.73
  -1   8   4    9.23    1.31
   1  -8  -4    7.75    0.60
  -1   8   4    7.92    1.27
   1  -8  -4    9.54    0.72
   1  -8  -4    8.11    0.76
  -1   8   4    9.26    1.32
   1  -8  -4    8.75    0.70
   1  -8  -4    8.63    0.72
  -1   8   4   10.04    0.70
   1  -8  -3   14.18    0.88
   1  -8  -3   13.34    0.77
  -1   8   3   11.81    1.48
   1  -8  -3   14.33    0.88
   1  -8  -3   14.10    0.84
   1  -8  -3   13.39    0.92
  -1   8   3   13.08    1.49
  -1   8   3   13.79    1.54
   1  -8  -2   47.97    1.62
  -1   8   2   48.49    2.76
  -1   8   2   51.74    2.82
   1  -8  -2   47.44    1.53
   1  -8  -2   49.42    1.50
   1  -8  -1   79.76    1.92
   1  -8  -1   76.33    1.94
  -1   8   1   82.76    3.71
  -1   8   1   79.20    3.52
  -1   8   1   76.99    3.49
   1  -8  -1   77.31    2.03
   1  -8  -1   79.80    1.66
   1  -8  -1   78.07    1.77
   1  -8  -1   79.18    1.86
  -1   8   0  230.91    6.15
   1  -8   0  230.32    3.33
   1  -8   0  210.45    3.27
  -1   8   0  238.18    6.36
   1  -8   0  225.98    3.47
   1  -8   0  224.60    3.22
   1  -8   0  221.22    2.92
   1  -8   0  237.58    3.33
  -1   8   0  229.83    6.07
   1  -8   0  224.05    3.44
   1  -8   1   51.78    1.59
   1  -8   1   55.30    1.56
   1  -8   1   46.79    1.29
  -1   8  -1   52.41    3.01
   1  -8   1   50.28    1.50
  -1   8  -1   48.95    2.89
   1  -8   1   52.12    1.55
   1  -8   1   50.30    1.50
   1  -8   1   46.50    1.48
   1  -8   2   37.25    1.29
  -1   8  -2   33.85    2.46
   1  -8   2   36.43    1.31
   1  -8   2   34.90    1.29
   1  -8   2   34.41    1.20
   1  -8   2   34.00    1.26
   1  -8   2   32.49    1.22
   1  -8   2   34.69    1.29
   1  -8   3   10.00    0.71
   1  -8   3    9.75    0.73
  -1   8  -3    9.82    1.42
   1  -8   3    9.71    0.68
   1  -8   3   10.29    0.77
   1  -8   3   10.38    0.76
   1  -8   3   10.81    0.75
   1  -8   3   10.67    0.74
  -1   8  -3   10.20    1.38
   1  -8   4   84.20    1.98
   1  -8   4   82.31    1.96
   1  -8   4   86.89    1.88
   1  -8   4   85.66    1.96
   1  -8   4   83.02    1.76
   1  -8   5    3.29    0.53
   1  -8   5    2.66    0.51
   1  -8   5    3.75    0.47
   1  -8   5    2.53    0.49
   1  -8   6   32.32    1.17
   1  -8   6   30.67    1.14
   1  -8   6   31.53    1.03
   1  -8   6   32.26    1.13
   1  -8   7    0.12    0.36
   1  -8   7    0.00    0.35
   1  -8   7    0.08    0.32
  -1   8  -7   -0.06    0.26
   1  -8   7    0.21    0.31
   1  -8   7    0.51    0.28
   1  -8   7    1.35    0.31
   1  -8   8   18.77    0.76
   1  -8   8   19.44    0.71
   1  -8   8   18.66    0.77
   1  -8   8   18.10    0.75
   1  -8   9    2.86    0.32
   1  -8   9    3.03    0.30
   1  -8   9    2.77    0.37
   1  -8   9    3.83    0.40
   1  -8   9    3.54    0.37
   1  -7 -15    0.88    0.28
  -1   7  15    0.61    0.25
   1  -7 -15    0.44    0.25
   1  -7 -14   12.79    0.60
   1  -7 -14   12.60    0.53
  -1   7  14   12.99    0.61
  -1   7  14   12.83    0.49
   1  -7 -14   13.97    0.64
   1  -7 -14   13.63    0.65
  -1   7  13    6.81    0.59
  -1   7  13    6.36    0.45
  -1   7  13    6.96    0.47
   1  -7 -13    6.67    0.54
   1  -7 -13    7.15    0.55
   1  -7 -13    7.96    0.62
  -1   7  12  184.27    2.62
   1  -7 -12  192.19    2.38
   1  -7 -12  205.69    2.93
   1  -7 -12  212.75    3.07
   1  -7 -12  211.65    2.96
  -1   7  12  207.64    2.90
   1  -7 -12  199.90    2.81
  -1   7  12  199.85    2.66
  -1   7  11   24.08    1.03
  -1   7  11   24.98    1.07
   1  -7 -11   26.49    1.15
   1  -7 -11   24.21    1.08
  -1   7  11   26.30    1.55
  -1   7  11   26.78    1.01
   1  -7 -11   26.01    1.15
  -1   7  11   25.19    1.03
  -1   7  10  189.64    2.89
  -1   7  10  192.47    2.92
   1  -7 -10  193.83    3.17
   1  -7 -10  196.23    3.19
   1  -7 -10  191.04    3.17
  -1   7  10  190.88    2.92
  -1   7  10  189.45    2.89
  -1   7  10  180.23    2.73
   1  -7  -9  143.94    2.74
  -1   7   9  132.06    2.42
  -1   7   9  134.26    2.41
   1  -7  -9  139.50    2.76
   1  -7  -9  135.57    2.65
  -1   7   9  137.11    2.41
  -1   7   9  138.64    2.47
  -1   7   9  133.59    2.30
  -1   7   8    0.56    0.45
  -1   7   8   -0.25    0.62
  -1   7   8    0.14    0.33
   1  -7  -8    0.15    0.43
  -1   7   8   -0.33    0.45
  -1   7   8    0.62    0.34
   1  -7  -8    1.29    0.45
   1  -7  -8    0.47    0.43
   1  -7  -7   79.40    3.87
  -1   7   7   79.07    3.42
   1  -7  -7   85.50    2.14
  -1   7   7   84.08    1.81
  -1   7   7   82.38    1.82
   1  -7  -7   76.40    1.95
   1  -7  -6  319.63    4.09
  -1   7   6  334.61    7.16
   1  -7  -6  330.51    4.42
   1  -7  -6  326.11    3.77
  -1   7   6  335.61    3.97
  -1   7   6  338.22    6.98
  -1   7   6  332.22    3.89
  -1   7   6  339.97    3.84
   1  -7  -6  339.13    4.44
  -1   7   6  339.71    7.05
   1  -7  -6  314.19    7.59
  -1   7   5   84.62    3.41
   1  -7  -5   85.53    1.81
   1  -7  -5   85.86    2.08
  -1   7   5   81.22    3.44
   1  -7  -5   83.20    1.82
   1  -7  -5   84.84    2.10
   1  -7  -5   84.74    1.98
  -1   7   5   84.08    1.81
  -1   7   5   84.63    3.41
   1  -7  -5   79.36    3.70
   1  -7  -4  146.64    2.70
   1  -7  -4  145.58    2.48
  -1   7   4  148.02    4.49
  -1   7   4  147.66    4.59
   1  -7  -4  140.36    2.41
  -1   7   4  152.33    4.57
  -1   7   4  143.90    2.39
   1  -7  -4  154.99    4.99
   1  -7  -4  148.20    2.76
  -1   7   4  149.49    4.50
   1  -7  -4  142.25    4.87
  -1   7   3    6.55    1.04
  -1   7   3    2.60    0.81
   1  -7  -3    4.33    0.47
  -1   7   3    2.75    0.88
   1  -7  -3    1.60    0.65
   1  -7  -3    4.49    0.98
  -1   7   3    3.65    0.89
   1  -7  -2  281.92    6.71
   1  -7  -2  267.78    6.69
  -1   7   2  272.72    5.83
  -1   7   2  277.26    6.22
  -1   7   2  267.25    6.31
  -1   7   2  272.37    6.14
  -1   7   2  291.12    6.48
  -1   7   1   22.00    1.80
   1  -7  -1   18.94    0.89
   1  -7  -1   19.39    0.86
  -1   7   1   19.05    1.72
   1  -7  -1   20.20    0.90
  -1   7   1   18.51    1.56
  -1   7   1   21.41    1.83
  -1   7   1   19.28    1.73
   1  -7  -1   18.70    0.92
  -1   7   1   17.79    1.61
   1  -7  -1   19.98    1.84
   1  -7  -1   19.07    1.86
   1  -7   0    5.50    0.56
   1  -7   0    4.86    1.05
   1  -7   0    5.05    0.51
   1  -7   0    6.09    0.54
  -1   7   0    4.71    1.03
   1  -7   0    4.49    1.03
   1  -7   0    5.22    0.52
  -1   7   0    6.06    0.98
  -1   7   0    3.86    0.85
  -1   7   0    4.87    0.94
   1  -7   0    5.71    0.53
   1  -7   1   45.86    1.38
   1  -7   1   44.27    2.87
   1  -7   1   42.58    2.56
  -1   7  -1   45.08    2.64
  -1   7  -1   46.82    2.67
   1  -7   1   44.35    1.35
   1  -7   1   46.95    2.97
  -1   7  -1   43.65    2.43
  -1   7  -1   44.36    2.56
  -1   7  -1   49.05    2.76
   1  -7   1   48.59    1.42
   1  -7   1   43.62    1.20
   1  -7   1   44.52    1.41
   1  -7   1   48.89    1.44
   1  -7   2  103.49    2.15
   1  -7   2  100.36    4.50
  -1   7  -2   99.02    4.02
   1  -7   2  107.14    2.15
  -1   7  -2  107.92    4.13
  -1   7  -2   97.55    3.81
   1  -7   2  104.26    4.10
   1  -7   2  107.89    2.17
  -1   7  -2   92.05    3.84
   1  -7   2  104.61    2.07
   1  -7   2   94.11    2.00
   1  -7   2   97.54    2.11
   1  -7   2   97.10    2.06
   1  -7   2   94.52    1.83
   1  -7   3    7.88    0.61
   1  -7   3    7.98    0.66
   1  -7   3   10.09    1.67
   1  -7   3    8.50    0.64
   1  -7   3    8.66    1.48
  -1   7  -3    7.06    1.21
  -1   7  -3    9.00    1.30
  -1   7  -3    7.41    1.13
  -1   7  -3    9.11    1.35
   1  -7   3    7.32    0.65
   1  -7   3    8.27    0.66
  -1   7  -3    8.69    1.27
   1  -7   3    8.36    0.66
  -1   7  -4   48.18    2.76
  -1   7  -4   45.18    2.91
   1  -7   4   53.18    1.52
   1  -7   4   49.42    1.53
  -1   7  -4   48.06    2.89
  -1   7  -5   38.58    2.59
   1  -7   5   44.89    1.39
  -1   7  -5   38.19    2.65
   1  -7   5   41.42    1.42
   1  -7   6    3.91    0.49
  -1   7  -6    0.42    0.70
  -1   7  -6    0.88    0.57
  -1   7  -6    3.48    1.01
   1  -7   6    2.97    0.51
  -1   7  -7    2.32    0.80
   1  -7   7    2.03    0.39
   1  -7   7    1.69    0.45
   1  -7   8   14.50    0.69
   1  -7   8   13.74    0.75
   1  -7   9   -0.04    0.36
   1  -7   9    0.19    0.30
  -1   7  -9   -0.13    0.27
   1  -7   9    0.34    0.34
   1  -7  10    0.02    0.30
   1  -7  10    0.08    0.22
   1  -7  10   -0.15    0.23
   1  -7  10   -0.24    0.32
   1  -7  11   50.29    0.91
   1  -7  11   51.93    0.88
   1  -6 -15   15.19    0.63
   1  -6 -15   14.64    0.54
  -1   6  15   15.38    0.63
  -1   6  15   13.03    0.45
   1  -6 -15   15.28    0.61
  -1   6  14    7.57    0.45
   1  -6 -14    6.86    0.52
  -1   6  14    6.95    0.58
  -1   6  14    7.45    0.51
   1  -6 -14    7.11    0.56
  -1   6  14    7.05    0.47
  -1   6  13    5.46    0.61
   1  -6 -13    5.15    0.50
   1  -6 -13    5.55    0.57
  -1   6  13    5.35    0.50
  -1   6  13    4.99    0.51
  -1   6  13    5.04    0.46
   1  -6 -12  238.87    3.35
  -1   6  12  236.35    3.19
  -1   6  12  242.26    3.35
   1  -6 -12  248.80    3.47
   1  -6 -12  245.96    3.31
  -1   6  12  230.56    3.12
  -1   6  12  243.80    3.34
   1  -6 -11    7.03    0.67
   1  -6 -11    6.37    0.63
   1  -6 -11    6.87    0.63
  -1   6  11    6.40    0.68
  -1   6  11    7.43    0.66
  -1   6  11    6.45    0.59
   1  -6 -11    6.59    0.69
  -1   6  10    0.18    0.34
  -1   6  10    0.23    0.42
   1  -6 -10    0.34    0.39
   1  -6 -10    0.26    0.46
  -1   6  10    0.20    0.44
   1  -6 -10    0.45    0.46
  -1   6  10    0.48    0.49
  -1   6   9  926.64    7.81
  -1   6   9  945.93    7.68
  -1   6   9  965.53    7.93
   1  -6  -9  981.44    8.43
  -1   6   9  983.12    7.87
   1  -6  -9  952.40    8.39
   1  -6  -9  861.43    7.86
  -1   6   9  955.84    7.87
   1  -6  -9  886.07   13.27
   1  -6  -8  249.39    3.61
  -1   6   8  248.29    3.30
  -1   6   8  250.46    3.15
  -1   6   8  249.13    5.93
  -1   6   8  250.88    3.24
   1  -6  -8  244.09    6.51
   1  -6  -8  264.44    3.74
  -1   6   8  245.65    3.30
  -1   6   7  229.09    3.14
  -1   6   7  240.91    5.64
   1  -6  -7  237.24    3.49
   1  -6  -7  229.52    3.37
  -1   6   7  232.55    3.02
   1  -6  -7  233.20    6.17
  -1   6   6  197.57    2.78
  -1   6   6  203.27    5.08
  -1   6   6  198.61    4.97
  -1   6   6  198.07    2.65
  -1   6   6  190.66    5.02
   1  -6  -6  192.14    5.43
  -1   6   5  209.46    5.07
   1  -6  -5  210.15    5.53
  -1   6   5  214.72    5.05
  -1   6   5  212.69    5.06
  -1   6   5  203.79    2.76
  -1   6   4   67.84    2.78
  -1   6   4   68.29    2.86
  -1   6   4   66.91    2.78
   1  -6  -4   68.15    3.07
  -1   6   4   66.21    2.74
  -1   6   3  105.19    3.19
   1  -6  -3  104.66    3.74
  -1   6   3  105.82    3.42
  -1   6   3  106.66    3.42
  -1   6   3  110.04    3.59
  -1   6   2   41.74    2.17
  -1   6   2   39.04    2.15
  -1   6   2   41.61    2.20
  -1   6   2   37.79    1.95
  -1   6   2   41.34    2.21
  -1   6   2   39.54    2.11
   1  -6  -2   39.69    2.28
   1  -6  -2   43.07    2.31
   1  -6  -1   40.19    1.96
  -1   6   1   40.93    1.97
   1  -6  -1   39.57    2.31
  -1   6   1   41.64    2.21
  -1   6   1   39.86    2.16
   1  -6  -1   40.85    2.28
  -1   6   1   41.37    2.20
  -1   6   1   42.17    2.11
  -1   6   0  477.22    7.62
  -1   6   0  487.97    7.99
  -1   6   0  491.04    7.97
   1  -6   0  483.83    8.37
   1  -6   0  518.29    7.79
   1  -6   0  507.96    8.48
   1  -6   1   11.98    1.41
   1  -6   1   13.24    1.37
  -1   6  -1   11.00    1.25
  -1   6  -1   11.10    1.22
   1  -6   1   12.16    1.41
  -1   6  -1   10.80    1.26
  -1   6  -1   10.75    1.24
  -1   6  -2   10.77    1.35
   1  -6   2   15.08    1.63
  -1   6  -2   12.01    1.25
   1  -6   2   14.84    1.57
  -1   6  -2   14.18    1.48
  -1   6  -3    3.24    0.90
  -1   6  -3    4.03    0.89
  -1   6  -3    4.61    0.92
   1  -6   3    2.87    0.89
  -1   6  -3    3.99    0.97
  -1   6  -3    3.28    0.85
   1  -6   4  249.92    7.31
  -1   6  -4  263.52    6.27
  -1   6  -4  254.06    6.23
  -1   6  -4  246.88    6.58
   1  -6   4  261.35    3.46
   1  -6   4  262.46    3.44
  -1   6  -4  259.35    6.45
  -1   6  -5  152.92    4.97
  -1   6  -5  148.66    4.96
  -1   6  -5  141.22    4.84
  -1   6  -5  145.57    5.09
   1  -6   5  157.85    5.50
  -1   6  -5  131.66    4.98
   1  -6   5  143.51    5.82
   1  -6   5  147.36    2.56
   1  -6   5  152.26    2.61
  -1   6  -6    6.42    1.09
  -1   6  -6    7.40    1.32
  -1   6  -6    5.95    1.18
  -1   6  -6    5.56    1.26
   1  -6   6    7.90    0.65
  -1   6  -6    6.61    1.27
  -1   6  -6    4.93    1.17
   1  -6   6    7.30    0.68
  -1   6  -7  235.41    6.61
  -1   6  -7  233.74    5.99
   1  -6   7  249.34    3.36
  -1   6  -7  224.81    6.46
  -1   6  -7  226.39    6.40
  -1   6  -8   46.42    2.89
  -1   6  -8   47.54    2.97
  -1   6  -8   48.14    2.96
   1  -6   8   53.09    1.43
   1  -6   8   50.57    1.46
  -1   6  -8   51.28    2.79
   1  -6   9  116.79    1.96
  -1   6  -9  102.74    1.96
   1  -6   9  113.86    2.11
  -1   6  -9  100.56    4.04
   1  -6  10    8.26    0.56
   1  -6  11    1.17    0.29
   1  -6  11    1.50    0.26
   1  -6  12   34.21    0.77
   1  -6  12   32.37    0.77
   1  -6  12   32.59    0.75
   1  -5 -16    5.63    0.37
  -1   5  16    5.49    0.38
  -1   5  16    4.99    0.38
  -1   5  15    0.24    0.23
   1  -5 -15    0.24    0.31
  -1   5  15    0.11    0.22
   1  -5 -15    0.04    0.22
  -1   5  15    0.26    0.31
  -1   5  14   35.93    1.15
   1  -5 -14   34.44    1.03
  -1   5  14   33.66    1.13
  -1   5  14   33.49    1.02
  -1   5  14   34.27    0.96
  -1   5  13    1.68    0.37
   1  -5 -13    2.21    0.46
  -1   5  13    2.10    0.51
   1  -5 -13    2.65    0.47
  -1   5  13    2.13    0.42
  -1   5  13    2.75    0.50
  -1   5  13    2.48    0.38
  -1   5  12   90.88    2.11
   1  -5 -12   88.97    2.08
  -1   5  12   84.75    1.85
  -1   5  12   90.42    1.94
   1  -5 -12   93.53    1.93
  -1   5  12   89.55    2.02
   1  -5 -12   94.29    2.06
  -1   5  11   15.19    0.92
   1  -5 -11   15.92    0.92
  -1   5  11   17.62    0.91
   1  -5 -11   16.31    0.96
  -1   5  11   25.20    1.09
  -1   5  11   22.81    1.31
  -1   5  11   15.75    0.93
   1  -5 -11   15.96    0.89
  -1   5  10   74.81    1.65
  -1   5  10   81.56    1.89
   1  -5 -10   77.89    3.63
  -1   5  10   78.86    1.99
   1  -5 -10   83.79    2.01
  -1   5  10   79.93    3.24
  -1   5  10   84.21    1.94
   1  -5 -10   84.83    2.03
  -1   5  10   78.61    1.87
   1  -5 -10   84.13    1.93
   1  -5  -9  282.77    3.77
  -1   5   9  276.85    3.54
   1  -5  -9  270.10    3.70
   1  -5  -9  294.32    3.87
   1  -5  -9  248.47    3.44
  -1   5   9  294.70    3.57
  -1   5   9  275.33    3.55
  -1   5   9  269.81    5.83
  -1   5   9  273.18    3.37
  -1   5   9  291.37    3.63
   1  -5  -9  272.73    6.67
  -1   5   9  279.86    3.30
   1  -5  -8  687.03   10.61
  -1   5   8  709.03    6.04
  -1   5   7  547.73    8.33
  -1   5   7  562.15    4.95
   1  -5  -7  547.33    8.99
  -1   5   6  681.21    5.74
   1  -5  -6  678.96    9.79
  -1   5   6  700.93    9.10
  -1   5   6  687.30    5.55
  -1   5   5  184.62    4.28
  -1   5   5  182.57    4.36
  -1   5   5  179.41    2.37
  -1   5   5  181.96    4.29
   1  -5  -5  185.87    4.69
  -1   5   4    2.20    0.61
   1  -5  -4    3.33    0.80
  -1   5   4    2.43    0.31
  -1   5   4    2.50    0.69
  -1   5   4    2.66    0.70
  -1   5   4    2.14    0.64
  -1   5   3   17.38    1.18
  -1   5   3   14.83    1.22
   1  -5  -3   15.71    1.35
  -1   5   3   14.34    1.25
  -1   5   3   16.46    1.23
  -1   5   2    5.80    0.82
   1  -5  -2    5.49    0.65
  -1   5   2    5.22    0.70
  -1   5   2    4.97    0.79
  -1   5   2    5.49    0.79
  -1   5   2    5.22    0.77
  -1   5   2    5.19    0.77
   1  -5  -2    4.73    0.85
  -1   5   1  367.20    5.66
   1  -5  -1  374.88    6.27
  -1   5   1  360.21    6.02
  -1   5   1  343.47    5.25
   1  -5  -1  380.71    5.45
  -1   5   1  376.19    6.02
   1  -5  -1  375.93    6.19
  -1   5   1  352.63    5.86
   1  -5   0    0.93    0.55
  -1   5   0    0.85    0.46
  -1   5   0    0.70    0.44
   1  -5   0    0.68    0.46
  -1   5   0    0.48    0.43
  -1   5   0    1.81    0.44
  -1   5   0    1.31    0.54
  -1   5  -1 2271.44   17.94
   1  -5   1 2249.00   19.58
  -1   5  -1 2253.42   19.01
   1  -5   1 2275.67   19.58
   1  -5   2  191.25    4.93
   1  -5   2  190.90    4.77
  -1   5  -2  179.52    4.30
  -1   5  -2  189.00    4.71
  -1   5  -2  175.10    4.26
   1  -5   2  182.64    4.35
   1  -5   3  229.10    5.84
  -1   5  -3  232.15    5.05
  -1   5  -3  226.75    5.17
  -1   5  -3  222.91    4.67
  -1   5  -3  233.90    5.58
   1  -5   3  228.07    5.39
  -1   5  -3  232.85    5.27
  -1   5  -4  163.43    4.53
   1  -5   4  158.89    5.24
   1  -5   4  159.93    4.98
  -1   5  -4  166.91    4.62
  -1   5  -4  162.34    4.92
  -1   5  -4  160.61    4.66
  -1   5  -4  164.50    4.28
  -1   5  -5  511.54    8.36
  -1   5  -5  508.16    8.87
   1  -5   5  470.51    9.49
  -1   5  -5  473.92    9.14
   1  -5   5  481.87    9.93
  -1   5  -5  504.73    8.77
   1  -5   6   67.38    3.83
  -1   5  -6   73.29    3.49
   1  -5   6   69.61    1.70
  -1   5  -6   64.80    3.49
   1  -5   6   70.52    1.72
   1  -5   6   65.06    3.90
  -1   5  -6   73.80    3.25
  -1   5  -6   75.16    3.48
  -1   5  -7   27.64    2.30
   1  -5   7   26.12    1.18
   1  -5   7   29.71    1.15
   1  -5   7   27.63    1.11
  -1   5  -7   27.38    2.38
   1  -5   7   27.44    2.72
  -1   5  -7   30.46    2.23
  -1   5  -7   29.62    2.45
  -1   5  -7   32.71    2.41
  -1   5  -8   79.33    3.92
   1  -5   8   81.74    1.89
  -1   5  -8   84.63    3.90
  -1   5  -8   80.59    3.67
   1  -5   8   83.64    1.88
   1  -5   8   81.30    1.91
   1  -5   8   77.97    2.03
   1  -5   9   80.34    1.88
   1  -5   9   82.16    1.81
  -1   5  -9   85.18    3.74
   1  -5   9   81.56    2.00
  -1   5  -9   78.15    3.91
  -1   5 -10    6.87    1.15
  -1   5 -10    5.99    0.56
   1  -5  10    6.35    0.63
   1  -5  10    6.06    0.52
  -1   5 -10    5.96    1.15
   1  -5  10    6.74    0.62
  -1   5 -10    6.68    1.33
  -1   5 -11    8.42    0.60
   1  -5  11    8.88    0.63
   1  -5  11    8.46    0.63
   1  -5  12   28.38    0.87
  -1   5 -12   27.28    0.73
   1  -5  13    9.27    0.44
  -1   4  16   69.53    1.21
   1  -4 -16   67.66    1.10
   1  -4 -15    0.85    0.25
  -1   4  15    0.75    0.29
  -1   4  15    0.69    0.25
   1  -4 -15    0.73    0.32
  -1   4  15    1.20    0.37
   1  -4 -14   72.63    1.71
  -1   4  14   73.09    1.74
   1  -4 -14   67.49    1.41
  -1   4  14   70.76    1.71
   1  -4 -14   69.48    1.48
  -1   4  14   68.40    1.55
  -1   4  14   69.89    1.44
   1  -4 -13    2.21    0.41
  -1   4  13    1.47    0.49
   1  -4 -13    2.15    0.50
  -1   4  13    1.21    0.36
  -1   4  13    2.06    0.44
  -1   4  13    1.39    0.38
   1  -4 -13    1.68    0.39
   1  -4 -12   29.28    1.12
   1  -4 -12   30.51    1.25
  -1   4  12   32.89    1.27
   1  -4 -12   31.67    1.18
  -1   4  12   27.54    1.11
  -1   4  12   29.90    1.18
   1  -4 -12   30.11    1.22
  -1   4  12   31.14    1.30
  -1   4  11   91.37    1.82
  -1   4  11   87.57    1.96
   1  -4 -11   89.02    2.01
   1  -4 -11   90.75    2.11
   1  -4 -11   87.34    2.04
  -1   4  11   84.38    1.98
   1  -4 -11   87.70    1.88
  -1   4  11   86.72    2.02
  -1   4  11   87.80    2.16
   1  -4 -10   38.75    2.46
  -1   4  10   42.14    1.46
   1  -4 -10   43.24    1.44
   1  -4 -10   43.59    1.39
  -1   4  10   42.73    1.35
  -1   4  10   43.90    1.39
  -1   4  10   39.57    2.26
   1  -4 -10   45.95    1.43
  -1   4  10   47.19    1.31
   1  -4  -9   45.38    2.57
  -1   4   9   47.73    1.34
  -1   4   9   42.89    1.18
  -1   4   9   45.52    2.31
   1  -4  -8 1247.72   14.13
  -1   4   8 1251.08    9.04
  -1   4   7  224.68    2.68
   1  -4  -7  231.88    5.24
  -1   4   7  228.94    4.91
  -1   4   6  114.34    3.24
  -1   4   6  112.76    1.73
   1  -4  -6  116.00    3.51
  -1   4   5   21.20    0.69
  -1   4   5   21.80    1.37
  -1   4   5   25.35    1.48
  -1   4   5   24.24    1.43
   1  -4  -5   21.41    1.50
  -1   4   4  444.01    6.12
  -1   4   4  457.17    6.25
  -1   4   4  464.50    6.32
  -1   4   4  446.12    6.12
   1  -4  -4  449.00    6.61
  -1   4   3    7.34    0.76
  -1   4   3    7.32    0.84
  -1   4   3    7.77    0.74
   1  -4  -3    6.52    0.82
  -1   4   2  200.18    3.78
   1  -4  -2  201.87    3.99
  -1   4   2  194.65    3.38
   1  -4  -2  199.39    3.09
  -1   4   2  196.34    3.77
  -1   4   2  191.73    3.75
  -1   4   2  190.53    3.63
  -1   4   1   66.00    2.14
   1  -4  -1   66.25    2.23
  -1   4   1   65.74    1.97
  -1   4   1   66.47    2.15
  -1   4   1   60.98    1.80
   1  -4   0  691.31    7.80
   1  -4   0  643.42    6.36
  -1   4   0  671.67    7.51
   1  -4   0  685.87    7.79
  -1   4   0  643.79    6.78
  -1   4  -1    3.86    0.43
  -1   4  -1    3.99    0.69
   1  -4   1    5.69    0.78
   1  -4   1    3.68    0.68
  -1   4  -1    5.46    0.62
  -1   4  -1    4.57    0.62
   1  -4   1    4.26    0.58
  -1   4  -2  518.93    6.72
  -1   4  -2  516.63    6.77
   1  -4   2  529.26    7.52
  -1   4  -2  508.30    5.53
   1  -4   2  505.49    6.88
  -1   4  -2  521.83    7.31
   1  -4   2  517.59    7.30
  -1   4  -3  217.17    4.54
  -1   4  -3  209.84    3.88
   1  -4   3  212.88    4.97
  -1   4  -3  215.75    4.53
  -1   4  -3  212.30    3.63
   1  -4   3  214.68    4.79
  -1   4  -3  218.88    3.87
  -1   4  -4  115.26    3.08
   1  -4   4  112.37    3.77
  -1   4  -4  115.65    3.58
  -1   4  -4  111.22    3.07
   1  -4   4  114.42    3.98
  -1   4  -4  113.04    3.51
   1  -4   5   70.94    3.32
  -1   4  -5   76.56    3.09
  -1   4  -5   76.31    3.13
   1  -4   5   71.35    3.44
  -1   4  -5   72.81    2.68
  -1   4  -6   62.20    3.00
   1  -4   6   59.01    3.41
  -1   4  -6   61.44    2.70
  -1   4  -6   68.47    3.19
   1  -4   6   61.55    3.46
  -1   4  -7  142.49    4.87
   1  -4   7  127.47    5.30
  -1   4  -7  141.04    4.59
   1  -4   7  139.12    2.33
   1  -4   7  134.59    2.37
   1  -4   7  118.86    2.51
  -1   4  -7  133.12    4.27
  -1   4  -7  143.02    4.72
   1  -4   7  133.69    2.56
   1  -4   8   67.19    4.20
  -1   4  -8   76.50    3.79
   1  -4   8   77.37    1.83
  -1   4  -8   74.88    3.54
   1  -4   8   71.44    1.71
   1  -4   8   66.17    1.82
   1  -4   8   74.51    1.84
  -1   4  -8   73.67    3.59
   1  -4   8   77.32    3.74
   1  -4   8   74.18    1.94
   1  -4   8   72.48    1.96
   1  -4   9  114.13    2.21
   1  -4   9  111.77    2.10
   1  -4   9  107.83    2.46
  -1   4  -9  116.86    4.53
   1  -4   9  111.09    2.31
   1  -4   9  108.08    2.39
  -1   4  -9  112.20    2.14
  -1   4  -9  114.96    4.53
   1  -4   9  115.55    2.49
   1  -4  10  140.77    2.78
   1  -4  10  142.71    2.43
   1  -4  10  139.35    2.61
  -1   4 -10  138.36    2.40
   1  -4  10  139.06    2.79
   1  -4  10  139.53    2.64
   1  -4  11    0.03    0.40
  -1   4 -11    1.16    0.74
   1  -4  11    0.02    0.37
  -1   4 -11    0.94    0.75
  -1   4 -11    0.00    0.30
   1  -4  11   -0.45    0.40
   1  -4  12   52.58    1.44
  -1   4 -12   48.74    1.19
   1  -4  12   51.81    1.40
  -1   4 -12   49.37    1.23
  -1   4 -12   50.35    1.37
   1  -4  13    6.66    0.50
  -1   4 -13    7.32    0.46
   1  -4  13    6.81    0.52
  -1   3  16   14.88    0.62
   1  -3 -16   13.01    0.49
   1  -3 -16   13.08    0.47
  -1   3  16   15.60    0.62
  -1   3  15   60.54    1.32
  -1   3  15   66.85    1.48
   1  -3 -15   63.20    1.33
  -1   3  15   68.45    1.50
   1  -3 -15   62.21    1.33
   1  -3 -14   13.88    0.76
  -1   3  14   14.29    0.85
   1  -3 -14   14.18    0.69
  -1   3  14   13.64    0.69
   1  -3 -14   15.40    0.85
  -1   3  14   13.87    0.76
  -1   3  14   14.65    0.89
   1  -3 -13   32.64    1.27
   1  -3 -13   31.85    1.19
  -1   3  13   32.84    1.35
  -1   3  13   31.16    1.27
  -1   3  13   30.94    1.06
  -1   3  13   31.55    1.10
   1  -3 -13   32.07    1.23
  -1   3  13   31.43    1.18
   1  -3 -12  216.98    3.36
  -1   3  12  206.64    3.04
   1  -3 -12  211.85    3.24
  -1   3  12  220.04    3.02
   1  -3 -12  210.53    3.00
  -1   3  12  212.57    3.24
  -1   3  12  218.19    3.30
  -1   3  12  221.13    3.56
   1  -3 -12  216.57    3.31
   1  -3 -11   54.19    1.62
  -1   3  11   52.85    1.57
   1  -3 -11   52.33    1.47
  -1   3  11   52.76    1.54
  -1   3  11   43.96    1.26
   1  -3 -11   51.62    1.57
  -1   3  11   47.77    1.49
   1  -3 -11   53.57    1.55
  -1   3  11   51.11    1.55
   1  -3 -11   47.12    2.69
  -1   3  11   54.83    1.72
  -1   3  10   33.04    1.17
  -1   3  10   34.53    1.22
  -1   3  10   36.41    1.31
   1  -3 -10   30.26    2.11
   1  -3 -10   34.15    1.21
   1  -3 -10   32.53    1.21
   1  -3 -10   34.03    1.21
  -1   3  10   37.95    1.22
  -1   3  10   29.25    1.18
   1  -3 -10   33.91    1.23
  -1   3  10   32.86    1.30
  -1   3  10   32.47    2.02
   1  -3 -10   34.63    1.19
  -1   3   9    6.24    0.57
   1  -3  -9    4.63    0.94
   1  -3  -8   81.16    3.06
  -1   3   8   84.69    2.82
  -1   3   8   83.06    1.61
  -1   3   8   82.30    1.51
   1  -3  -7  362.91    6.23
  -1   3   7  356.22    3.50
  -1   3   6 3055.76   22.24
  -1   3   6 2984.97   17.85
   1  -3  -5 1850.54   15.10
  -1   3   5 1845.62   14.60
  -1   3   4   15.77    1.03
  -1   3   4   16.02    1.06
   1  -3  -4   17.06    1.16
  -1   3   4   16.13    1.06
  -1   3   3   34.80    1.40
   1  -3  -3   37.49    1.54
  -1   3   3   38.12    1.46
  -1   3   3   35.45    1.45
  -1   3   3   36.66    1.43
   1  -3  -3   36.36    1.73
  -1   3   2   18.80    1.00
   1  -3  -2   16.15    1.01
   1  -3  -2   17.70    0.79
   1  -3  -2   17.75    1.18
  -1   3   2   16.97    0.98
  -1   3   2   17.50    0.84
  -1   3   2   19.60    1.03
  -1   3   2   16.71    0.95
   1  -3  -1   16.64    1.07
  -1   3   1   16.28    0.68
   1  -3  -1   19.51    1.06
  -1   3   1   16.61    0.86
   1  -3  -1   15.08    0.49
  -1   3   1   19.02    0.99
   1  -3  -1   16.07    0.87
  -1   3   1   17.11    0.94
   1  -3   0  770.17    6.45
   1  -3   0  761.64    7.63
   1  -3   0  806.61    7.43
  -1   3   0  805.65    7.39
   1  -3   0  802.98    7.56
  -1   3   0  751.77    6.47
  -1   3  -1    9.09    0.52
   1  -3   1    9.60    0.82
  -1   3  -1   10.41    0.58
   1  -3   1    9.66    0.79
  -1   3  -1    9.26    0.67
   1  -3   1   11.01    0.76
  -1   3  -2  334.80    4.21
  -1   3  -2  327.87    4.18
  -1   3  -2  343.75    3.96
  -1   3  -2  330.72    4.76
   1  -3   2  352.56    5.24
   1  -3   2  345.49    4.93
   1  -3   2  343.22    4.99
   1  -3   2  350.57    4.01
   1  -3   3  232.27    4.68
   1  -3   3  240.50    3.38
   1  -3   3  234.57    4.55
  -1   3  -3  227.26    3.82
  -1   3  -3  233.90    3.55
  -1   3  -3  231.35    3.69
   1  -3   4  670.50    9.26
  -1   3  -4  679.42    7.85
  -1   3  -4  693.28    7.47
   1  -3   4  691.62    9.10
  -1   3  -4  657.42    7.79
  -1   3  -4  700.36    7.40
  -1   3  -5  266.91    5.01
   1  -3   5  254.94    6.00
  -1   3  -5  252.49    4.85
   1  -3   5  257.59    5.99
  -1   3  -5  268.14    5.55
  -1   3  -5  244.33    4.69
  -1   3  -6   11.47    1.13
  -1   3  -6    7.12    1.13
   1  -3   6    8.79    1.35
   1  -3   6    8.61    1.30
  -1   3  -6   13.26    1.29
  -1   3  -6    8.76    1.07
  -1   3  -7  182.41    4.66
  -1   3  -7  181.71    5.27
  -1   3  -7  171.20    2.39
   1  -3   7  172.73    5.81
  -1   3  -7  185.47    4.79
  -1   3  -7  183.83    4.90
  -1   3  -8   65.19    3.19
   1  -3   8   61.29    3.82
  -1   3  -8   63.31    3.06
   1  -3   8   60.60    1.77
  -1   3  -8   65.79    3.00
   1  -3   8   62.04    1.70
   1  -3   8   71.92    3.36
  -1   3  -8   64.81    1.46
  -1   3  -8   67.41    3.42
   1  -3   8   65.06    1.68
   1  -3   9   59.57    1.72
   1  -3   9   64.33    1.73
  -1   3  -9   64.67    3.20
  -1   3  -9   61.52    3.04
   1  -3   9   62.31    1.86
  -1   3  -9   63.70    3.26
  -1   3  -9   63.55    3.49
   1  -3   9   55.27    3.85
  -1   3  -9   62.17    1.51
  -1   3  -9   66.96    3.42
   1  -3   9   61.27    3.13
   1  -3   9   61.19    1.76
   1  -3   9   57.66    1.79
   1  -3  10   66.27    1.66
   1  -3  10   62.75    1.83
   1  -3  10   60.27    1.74
   1  -3  10   65.69    1.79
   1  -3  10   63.84    1.93
  -1   3 -10   62.89    3.34
  -1   3 -10   63.19    1.56
   1  -3  10   63.38    1.87
  -1   3 -10   62.75    3.30
   1  -3  11  342.09    4.61
  -1   3 -11  347.11    7.85
   1  -3  11  346.52    3.96
   1  -3  11  346.83    4.54
   1  -3  11  347.16    4.49
  -1   3 -11  335.41    3.89
   1  -3  11  343.48    4.36
  -1   3 -11  345.66    4.14
   1  -3  11  347.75    4.37
   1  -3  12    2.53    0.51
  -1   3 -12    3.18    0.95
   1  -3  12    1.49    0.53
  -1   3 -12    1.91    0.41
  -1   3 -12    1.44    0.36
   1  -3  12    1.99    0.44
   1  -3  12    2.02    0.50
   1  -3  13   36.04    1.06
   1  -3  13   35.36    1.19
  -1   3 -13   32.85    0.94
   1  -3  13   35.31    1.18
  -1   3 -13   34.37    1.12
  -1   3 -13   34.31    1.05
   1  -3  14    7.59    0.55
  -1   3 -14    8.16    0.49
   1  -3  14    7.56    0.53
  -1   3 -14    7.34    0.43
   1  -2 -16    0.30    0.28
   1  -2 -16    0.35    0.20
  -1   2  16    0.28    0.32
  -1   2  16    0.22    0.30
  -1   2  16    0.20    0.22
  -1   2  15   27.52    0.99
   1  -2 -15   25.61    0.84
  -1   2  15   27.68    0.99
  -1   2  15   24.74    0.88
   1  -2 -15   25.97    0.91
   1  -2 -15   24.12    0.78
   1  -2 -15   24.56    0.78
   1  -2 -14    0.15    0.35
   1  -2 -14    0.52    0.33
  -1   2  14    0.68    0.45
  -1   2  14    0.15    0.34
  -1   2  14    0.46    0.32
   1  -2 -14    0.38    0.36
   1  -2 -14   -0.04    0.35
  -1   2  14    0.33    0.42
   1  -2 -14    0.40    0.31
   1  -2 -13    4.02    0.52
   1  -2 -13    5.06    0.54
  -1   2  13    4.02    0.56
  -1   2  13    2.71    0.42
   1  -2 -13    4.34    0.58
  -1   2  13    3.80    0.61
  -1   2  13    3.77    0.49
   1  -2 -13    4.16    0.54
  -1   2  13    3.86    0.62
   1  -2 -13    4.37    0.59
   1  -2 -12   13.28    0.80
   1  -2 -12   12.93    0.79
  -1   2  12   11.81    0.82
   1  -2 -12   12.31    0.82
  -1   2  12   12.09    0.79
  -1   2  12   13.66    0.90
  -1   2  12   13.66    0.80
  -1   2  12   12.28    0.89
  -1   2  12   11.96    0.76
   1  -2 -12   12.19    0.82
   1  -2 -11    2.43    0.44
   1  -2 -11    2.75    0.48
  -1   2  11    1.37    0.42
  -1   2  11    1.76    0.37
   1  -2 -11    3.14    0.49
   1  -2 -11    1.72    0.69
   1  -2 -11    2.39    0.48
   1  -2 -11    1.71    0.44
  -1   2  11    1.56    0.46
  -1   2  11    1.96    0.42
  -1   2  11    1.70    0.48
  -1   2  10   76.31    1.79
  -1   2  10   78.02    1.82
  -1   2  10   74.81    1.81
  -1   2  10   75.91    1.96
   1  -2 -10   78.60    1.84
  -1   2  10   71.86    1.56
   1  -2 -10   75.01    3.20
   1  -2 -10   78.53    1.83
   1  -2 -10   78.37    1.81
   1  -2 -10   80.20    1.77
   1  -2 -10   79.54    1.88
  -1   2   9  121.27    3.54
   1  -2  -9  116.34    2.07
   1  -2  -9  117.84    3.82
  -1   2   9  123.56    1.97
   1  -2  -9  123.20    2.11
   1  -2  -8    0.20    0.46
  -1   2   8    0.50    0.32
   1  -2  -8    0.49    0.28
  -1   2   8    0.89    0.62
   1  -2  -7  221.52    4.62
  -1   2   7  228.66    4.26
  -1   2   7  222.75    3.76
  -1   2   7  207.59    2.50
   1  -2  -7  219.17    2.59
  -1   2   7  211.39    4.69
  -1   2   6  362.69    4.87
  -1   2   6  370.11    5.57
   1  -2  -6  360.39    4.59
  -1   2   6  373.82    3.34
   1  -2  -5   94.13    1.86
  -1   2   5   93.32    2.31
   1  -2  -5  100.14    2.63
   1  -2  -4  328.20    4.90
   1  -2  -4  336.18    4.56
  -1   2   4  314.84    4.32
  -1   2   4  307.73    3.71
  -1   2   3 5696.64   34.10
   1  -2  -3 5674.23   35.36
   1  -2  -3 5789.68   34.61
  -1   2   3 5687.09   34.25
  -1   2   3 5825.65   34.32
   1  -2  -2 3338.60   21.06
  -1   2   2 3317.10   19.72
  -1   2   2 3314.97   20.74
   1  -2  -2 3330.58   21.77
   1  -2  -1   30.44    1.07
   1  -2  -1   30.61    1.19
   1  -2  -1   30.67    0.96
  -1   2   1   29.71    1.01
  -1   2   1   27.83    1.00
   1  -2   0  636.89    5.01
  -1   2   0  634.71    5.53
   1  -2   0  644.80    5.48
   1  -2   0  633.86    5.89
   1  -2   0  640.78    5.71
   1  -2   1   29.75    1.08
   1  -2   1   27.96    1.04
   1  -2   1   30.07    1.05
   1  -2   1   28.86    0.99
   1  -2   1   29.50    1.03
  -1   2  -2   85.65    1.86
   1  -2   2   91.90    2.23
   1  -2   2   88.76    2.19
   1  -2   2   94.78    1.91
   1  -2   2   88.57    1.98
   1  -2   2   90.16    1.61
   1  -2   3   72.48    2.26
  -1   2  -3   75.96    1.93
  -1   2  -3   74.49    1.93
   1  -2   3   73.59    2.32
  -1   2  -3   68.13    1.28
  -1   2  -3   69.14    1.63
   1  -2   3   78.89    1.88
   1  -2   3   62.11    1.11
  -1   2  -4    8.79    0.78
   1  -2   4    8.19    0.99
  -1   2  -4    9.14    0.78
  -1   2  -4    9.50    0.68
  -1   2  -4    8.45    0.60
   1  -2   4    8.87    0.72
  -1   2  -4    8.83    0.85
   1  -2   5 4762.40   34.24
   1  -2   5 4844.44   34.10
  -1   2  -5 4801.50   31.32
  -1   2  -5 4723.97   31.94
  -1   2  -5 4900.74   31.23
  -1   2  -6   33.90    1.82
   1  -2   6   29.41    1.53
   1  -2   6   33.02    2.24
  -1   2  -6   32.44    1.71
  -1   2  -6   33.08    1.77
  -1   2  -6   34.70    1.89
   1  -2   7   28.57    2.28
  -1   2  -7   29.84    1.87
  -1   2  -7   27.32    1.79
   1  -2   7   24.79    1.55
  -1   2  -7   31.93    2.02
   1  -2   8    4.22    0.84
   1  -2   8    3.13    1.09
  -1   2  -8    3.18    0.83
  -1   2  -8    3.62    0.86
  -1   2  -8    3.47    0.41
  -1   2  -8    2.70    0.80
  -1   2  -8    2.00    0.80
  -1   2  -9  125.96    4.35
  -1   2  -9  125.84    4.67
   1  -2   9  116.71    2.35
  -1   2  -9  127.82    4.53
  -1   2  -9  124.53    2.18
   1  -2   9  119.34    2.50
   1  -2   9  124.22    4.14
   1  -2   9  121.63    2.43
   1  -2   9  120.23    2.56
   1  -2   9  114.66    5.35
   1  -2   9  125.06    2.38
   1  -2   9  122.65    2.51
  -1   2  -9  123.95    4.37
  -1   2  -9  121.63    2.04
   1  -2  10   -1.06    1.08
   1  -2  10    0.11    0.38
  -1   2 -10    1.18    0.84
  -1   2 -10    0.46    0.27
   1  -2  10    0.37    0.37
  -1   2 -10    0.69    0.86
  -1   2 -10   -0.15    0.66
   1  -2  10    0.24    0.38
  -1   2 -10    0.31    0.32
   1  -2  10    1.09    0.46
   1  -2  10    0.50    0.41
  -1   2 -10    0.85    0.77
  -1   2 -10    0.60    0.61
  -1   2 -11    2.65    0.83
   1  -2  11    4.06    0.61
  -1   2 -11    2.63    0.37
   1  -2  11    2.73    0.54
   1  -2  11    3.26    0.61
  -1   2 -11    3.75    1.05
   1  -2  11    2.46    0.50
  -1   2 -11    2.71    0.45
   1  -2  11    5.16    0.64
  -1   2 -12   48.21    1.25
   1  -2  12   53.32    1.69
   1  -2  12   53.66    1.65
   1  -2  12   51.46    1.71
  -1   2 -12   50.36    1.30
  -1   2 -12   53.48    1.47
   1  -2  12   52.38    1.54
   1  -2  12   52.77    1.39
   1  -2  12   52.87    1.63
  -1   2 -12   54.18    1.56
  -1   2 -12   53.86    3.02
   1  -2  13    1.33    0.44
   1  -2  13    1.31    0.40
  -1   2 -13    0.94    0.27
   1  -2  13    1.03    0.50
  -1   2 -13    1.45    0.38
   1  -2  13    0.92    0.48
  -1   2 -13    1.99    0.44
   1  -2  13    1.09    0.50
   1  -2  14    1.23    0.37
  -1   2 -14    1.28    0.33
   1  -2  14    1.48    0.42
  -1   2 -14    1.68    0.34
  -1   2 -14    1.87    0.36
   1  -2  14    1.48    0.31
   1  -2  15    1.35    0.38
  -1   2 -15    1.51    0.31
   1  -2  15    1.10    0.34
  -1   2 -15    1.15    0.24
  -1   2 -15    1.25    0.32
  -1   1  16    0.10    0.29
   1  -1 -16    0.47    0.28
  -1   1  16    0.29    0.29
  -1   1  16    0.45    0.32
   1  -1 -16    0.11    0.25
   1  -1 -15   81.80    1.55
  -1   1  15   85.95    1.69
   1  -1 -15   69.96    1.30
   1  -1 -15   84.56    1.61
  -1   1  15   75.97    1.54
   1  -1 -15   78.79    1.47
  -1   1  15   86.99    1.71
   1  -1 -15   79.43    1.51
   1  -1 -14    6.53    0.59
  -1   1  14    6.43    0.59
  -1   1  14    5.56    0.59
  -1   1  14    6.37    0.65
   1  -1 -14    6.22    0.53
   1  -1 -14    6.74    0.57
   1  -1 -14    6.89    0.62
   1  -1 -14    6.43    0.57
  -1   1  14    6.40    0.65
   1  -1 -13   35.26    1.24
  -1   1  13   36.65    1.37
   1  -1 -13   34.75    1.20
   1  -1 -13   36.86    1.28
  -1   1  13   31.54    1.13
   1  -1 -13   35.46    1.31
   1  -1 -13   35.61    1.24
  -1   1  13   34.64    1.36
  -1   1  13   35.34    1.28
  -1   1  13   36.07    1.32
   1  -1 -12  331.92    4.14
   1  -1 -12  335.07    4.15
   1  -1 -12  326.14    4.06
  -1   1  12  314.14    3.89
  -1   1  12  323.79    4.19
  -1   1  12  338.05    4.33
  -1   1  12  331.80    3.96
   1  -1 -12  338.04    4.18
  -1   1  12  329.41    4.47
  -1   1  12  338.61    4.41
   1  -1 -12  335.77    4.26
   1  -1 -11  294.31    3.98
  -1   1  11  290.73    3.72
  -1   1  11  298.34    4.16
  -1   1  11  287.22    3.88
   1  -1 -11  293.97    3.79
   1  -1 -11  299.77    3.84
  -1   1  11  305.51    4.08
  -1   1  11  290.36    3.60
   1  -1 -11  304.44    3.89
  -1   1  11  297.22    4.02
  -1   1  10  155.53    2.83
   1  -1 -10  161.03    2.60
  -1   1  10  153.81    2.62
   1  -1 -10  147.05    2.47
  -1   1  10  156.61    2.42
   1  -1 -10  159.06    2.61
   1  -1 -10  160.07    4.49
  -1   1  10  168.10    2.80
   1  -1 -10  160.11    2.63
   1  -1 -10  154.05    2.58
   1  -1  -9   23.10    1.64
  -1   1   9   20.97    1.91
   1  -1  -9   21.57    1.58
   1  -1  -9   23.16    0.92
   1  -1  -9   23.08    0.94
   1  -1  -8   24.39    0.87
  -1   1   8   23.61    1.84
   1  -1  -8   24.18    0.88
   1  -1  -8   24.27    1.51
   1  -1  -8   23.92    1.54
   1  -1  -8   24.01    0.88
  -1   1   8   23.27    0.81
  -1   1   7   25.67    1.69
   1  -1  -7   25.25    1.46
   1  -1  -7   24.64    1.43
  -1   1   7   25.89    1.48
   1  -1  -7   24.36    0.82
   1  -1  -6   15.68    1.04
  -1   1   6   14.46    0.94
   1  -1  -6   15.57    1.06
  -1   1   6   15.98    1.19
  -1   1   6   18.37    1.18
   1  -1  -6   14.18    0.86
  -1   1   5  214.46    3.74
   1  -1  -5  228.43    3.89
  -1   1   5  216.19    3.28
   1  -1  -5  215.19    3.43
  -1   1   5  220.78    3.59
   1  -1  -4  532.18    5.81
   1  -1  -4  515.28    4.99
  -1   1   4  497.88    5.09
  -1   1   4  501.57    5.32
   1  -1  -4  481.02    4.32
   1  -1  -3 1260.50    8.61
  -1   1   3 1263.99    8.87
   1  -1  -3 1289.10    9.96
   1  -1  -1  461.57    4.37
   1  -1  -1  463.14    4.04
  -1   1   1  434.15    3.95
  -1   1   1  454.43    3.82
  -1   1   1  441.88    3.79
   1  -1   0 1146.64    8.00
  -1   1   0 1110.40    7.57
   1  -1   0 1106.37    7.63
   1  -1   0 1127.41    7.56
   1  -1   0 1200.32    8.71
   1  -1   0 1166.79    8.12
   1  -1   0 1161.18    7.14
   1  -1   1  344.87    3.09
   1  -1   1  348.86    3.78
   1  -1   1  364.23    3.49
   1  -1   1  370.81    3.81
   1  -1   1  353.76    3.33
   1  -1   2 6087.76   36.42
   1  -1   2 6079.58   36.01
  -1   1  -2 5952.43   34.53
   1  -1   2 5958.70   34.26
   1  -1   3 2494.88   14.76
   1  -1   3 2487.82   18.19
  -1   1  -3 2486.05   16.46
  -1   1  -3 2491.68   16.10
   1  -1   3 2500.97   17.94
  -1   1  -3 2471.75   16.99
  -1   1  -3 2436.18   16.79
  -1   1  -3 2503.35   15.44
  -1   1  -4 1392.73   11.15
   1  -1   4 1402.91   12.77
  -1   1  -4 1382.74   10.80
  -1   1  -4 1401.38    9.03
  -1   1  -4 1405.11   10.32
   1  -1   5  374.03    6.49
  -1   1  -5  378.60    5.40
  -1   1  -5  370.63    5.03
  -1   1  -5  387.29    5.34
   1  -1   5  381.36    5.28
  -1   1  -6 1384.86   12.91
   1  -1   6 1399.98   12.63
   1  -1   6 1364.71   14.71
  -1   1  -6 1390.91   13.26
  -1   1  -7    3.01    0.29
  -1   1  -7    2.81    0.80
  -1   1  -7    4.44    0.82
   1  -1   7    2.49    0.58
  -1   1  -7    3.15    0.76
   1  -1   7    2.36    0.94
  -1   1  -8  717.72   10.03
  -1   1  -8  684.32    5.50
   1  -1   8  686.05    9.66
   1  -1   8  720.76   12.18
  -1   1  -8  729.35   10.32
  -1   1  -8  734.01    9.97
   1  -1   8  767.14    9.47
  -1   1  -9    0.02    0.68
   1  -1   9    1.20    0.94
  -1   1  -9    0.07    0.68
  -1   1  -9    0.12    0.24
  -1   1  -9    0.41    0.71
   1  -1   9   -0.32    0.42
  -1   1  -9    0.68    0.34
   1  -1  10   22.53    1.10
  -1   1 -10   23.01    1.01
  -1   1 -10   23.88    2.09
   1  -1  10   23.06    1.07
   1  -1  10   22.22    2.56
   1  -1  10   22.30    1.03
   1  -1  10   24.70    1.15
   1  -1  10   23.32    1.10
   1  -1  10   23.88    1.06
   1  -1  10   23.55    1.19
  -1   1 -10   24.39    2.11
  -1   1 -10   24.13    0.95
  -1   1 -10   22.63    1.98
  -1   1 -10   23.13    2.09
  -1   1 -11    8.98    0.70
  -1   1 -11    8.91    0.64
  -1   1 -11    7.57    1.35
  -1   1 -11    9.56    1.46
   1  -1  11    8.75    0.81
   1  -1  11    8.92    0.79
   1  -1  11    8.67    0.73
  -1   1 -11    6.20    1.12
   1  -1  11    8.73    0.70
  -1   1 -11    8.24    1.36
   1  -1  11    9.19    0.78
   1  -1  11    8.28    0.77
  -1   1 -12    6.95    1.26
   1  -1  12    7.41    0.77
  -1   1 -12    5.76    0.61
   1  -1  12    5.94    0.70
  -1   1 -12    5.66    0.53
   1  -1  12    6.12    0.70
   1  -1  12    6.16    0.64
   1  -1  12    5.78    0.68
  -1   1 -13   65.71    1.68
  -1   1 -13   60.68    3.04
  -1   1 -13   62.68    1.48
   1  -1  13   64.11    1.62
   1  -1  13   63.61    1.80
   1  -1  13   61.28    1.71
   1  -1  13   64.85    1.71
  -1   1 -13   62.23    1.58
   1  -1  13   64.78    1.79
  -1   1 -14    6.71    0.57
   1  -1  14    6.29    0.58
   1  -1  14    5.91    0.65
  -1   1 -14    6.22    0.56
  -1   1 -14    5.97    0.45
   1  -1  14    6.66    0.61
   1  -1  14    6.39    0.52
   1  -1  14    6.39    0.62
   1  -1  15   16.40    0.72
   1  -1  15   17.68    0.72
  -1   1 -15   17.72    0.68
  -1   1 -15   16.90    0.68
  -1   1 -15   17.91    0.69
  -1   1 -15   15.42    0.53
   1   0 -16    0.39    0.27
  -1   0  16    0.49    0.30
   1   0 -16    0.51    0.28
  -1   0  16    0.37    0.27
  -1   0  16    0.25    0.30
   1   0 -15   69.56    1.36
   1   0 -15   71.44    1.43
   1   0 -15   68.70    1.38
   1   0 -15   72.90    1.43
  -1   0  15   74.15    1.51
  -1   0  15   71.38    1.40
  -1   0  15   74.94    1.56
  -1   0  14   19.37    0.91
   1   0 -14   19.34    0.80
   1   0 -14   21.16    0.92
   1   0 -14   21.50    0.91
   1   0 -14   21.84    0.96
  -1   0  14   20.84    0.97
  -1   0  14   22.25    1.02
   1   0 -14   19.97    0.93
  -1   0  14   21.52    0.99
   1   0 -13   20.25    0.87
   1   0 -13   20.98    1.02
   1   0 -13   19.17    0.89
  -1   0  13   19.45    1.04
  -1   0  13   20.45    1.06
  -1   0  13   19.72    1.01
   1   0 -13   20.40    1.00
   1   0 -13   18.09    0.89
  -1   0  13   21.13    1.08
   1   0 -13   19.65    0.97
   1   0 -12  175.05    2.91
  -1   0  12  170.82    2.68
  -1   0  12  166.96    2.94
   1   0 -12  162.12    2.64
   1   0 -12  166.89    2.72
   1   0 -12  172.29    2.89
   1   0 -12  170.55    2.93
  -1   0  12  172.99    3.05
  -1   0  12  172.41    3.06
  -1   0  12  167.55    3.04
  -1   0  11  222.70    3.21
   1   0 -11  218.58    3.13
  -1   0  11  205.17    7.01
   1   0 -11  224.89    3.39
  -1   0  11  228.28    3.54
  -1   0  11  210.88    3.09
   1   0 -11  215.55    5.72
   1   0 -11  231.66    3.36
  -1   0  11  222.68    3.41
   1   0 -11  222.79    3.18
  -1   0  11  231.01    3.58
  -1   0  11  221.40    3.48
  -1   0  10   69.98    1.80
  -1   0  10   62.15    3.60
   1   0 -10   68.45    1.73
   1   0 -10   69.70    1.73
  -1   0  10   66.65    1.66
  -1   0  10   66.56    1.74
   1   0 -10   65.79    1.60
  -1   0  10   67.18    1.59
   1   0 -10   66.45    3.07
   1   0 -10   69.29    1.65
  -1   0  10   73.47    1.86
   1   0 -10   70.00    3.15
  -1   0  10   71.22    1.88
   1   0  -9   20.57    1.67
  -1   0   9   19.38    1.93
   1   0  -9   20.41    0.91
   1   0  -9   21.18    0.92
   1   0  -9   22.14    1.70
   1   0  -9   19.87    0.83
   1   0  -8    5.58    0.79
   1   0  -8    5.08    0.43
   1   0  -8    7.04    0.51
   1   0  -8    6.94    0.52
  -1   0   8    4.70    0.97
   1   0  -8    4.70    0.85
   1   0  -8    5.07    0.86
   1   0  -7   89.32    2.88
  -1   0   7   89.48    3.19
   1   0  -7   92.56    2.58
   1   0  -7   92.89    2.92
   1   0  -7   87.62    1.58
   1   0  -6  590.45    6.66
   1   0  -6  577.40    7.37
   1   0  -6  585.12    7.34
   1   0  -6  598.67    4.74
  -1   0   6  592.68    7.86
   1   0  -5  310.84    4.09
   1   0  -5  297.40    4.56
  -1   0   5  300.77    4.74
   1   0  -5  289.59    4.09
   1   0  -5  308.76    4.64
  -1   0   5  314.45    4.42
   1   0  -4  161.13    2.66
   1   0  -4  164.62    2.96
  -1   0   4  166.65    2.88
   1   0  -4  165.05    2.65
  -1   0   3 2643.40   16.67
   1   0  -3 2669.14   17.03
   1   0  -3 2633.39   16.49
   1   0  -3 2657.05   16.68
  -1   0   3 2611.63   15.35
   1   0  -2 1478.90   10.11
  -1   0   2 1494.41   10.49
  -1   0   1  892.94    5.95
  -1   0   1  893.47    5.99
  -1   0   1  890.02    6.24
   1   0  -1  912.64    6.50
  -1   0   0  142.44    1.10
  -1   0   0  144.97    1.46
   1   0   1  107.12    1.99
  -1   0  -1  117.54    1.51
   1   0   1  112.05    1.81
  -1   0  -1  114.51    1.61
   1   0   1  109.61    1.65
   1   0   2  191.79    2.48
   1   0   2  201.39    3.20
  -1   0  -2  229.31    2.31
   1   0   2  219.07    2.83
  -1   0  -2  221.21    2.53
   1   0   3 1966.89   13.49
  -1   0  -3 2000.96   14.03
   1   0   3 2177.09   14.33
   1   0   3 2025.09   15.34
  -1   0  -3 2112.83   13.67
  -1   0  -4 2507.69   17.45
   1   0   4 2510.51   19.15
   1   0   4 2498.53   16.86
  -1   0  -4 2464.85   17.76
   1   0   5  208.32    3.38
  -1   0  -5  209.38    3.72
   1   0   5  214.61    4.61
  -1   0  -5  216.97    3.90
  -1   0  -5  211.20    3.74
   1   0   6  283.37    4.31
  -1   0  -6  280.12    2.68
   1   0   6  283.08    5.96
  -1   0  -6  290.59    4.99
   1   0   6  291.32    5.07
   1   0   7  369.77    6.28
  -1   0  -7  350.47    5.97
  -1   0  -7  367.74    6.15
   1   0   7  363.02    7.41
   1   0   7  365.61    5.24
  -1   0  -7  337.89    4.82
  -1   0  -7  359.82    6.22
  -1   0  -7  352.47    3.33
  -1   0  -8  754.93   10.08
  -1   0  -8  744.76    9.89
   1   0   8  685.53    9.76
   1   0   8  726.44   11.97
  -1   0  -8  707.32    5.67
  -1   0  -8  745.83    9.66
  -1   0  -8  701.54    5.65
  -1   0  -9  371.43    7.40
   1   0   9  341.36    7.06
  -1   0  -9  349.74    3.69
  -1   0  -9  385.64    7.48
   1   0   9  348.62    8.77
  -1   0  -9  371.52    7.15
  -1   0  -9  362.86    3.93
   1   0  10    0.23    0.33
  -1   0 -10    0.04    0.60
   1   0  10   -1.37    0.66
  -1   0 -10    0.10    0.69
   1   0  10    0.21    0.35
   1   0  10    0.16    0.39
   1   0  10    0.00    0.34
   1   0  10    0.13    0.36
  -1   0 -10    0.49    0.31
  -1   0 -10    0.35    0.35
  -1   0 -10    0.19    0.56
   1   0  10    0.41    0.36
   1   0  10    0.53    0.34
   1   0  10    0.04    0.83
  -1   0 -11  255.29    3.51
  -1   0 -11  243.25    6.67
   1   0  11  228.49    8.01
   1   0  11  255.67    3.84
  -1   0 -11  229.95    5.82
   1   0  11  249.46    3.73
  -1   0 -11  251.86    3.36
   1   0  11  249.01    4.12
   1   0  11  248.55    3.50
  -1   0 -11  259.69    6.75
   1   0  11  259.25    3.65
  -1   0 -11  247.66    6.30
   1   0  11  259.89    3.68
   1   0  11  247.04    3.83
   1   0  11  247.77    3.67
  -1   0 -11  253.20    3.38
   1   0  12   97.38    2.27
  -1   0 -12   96.74    2.09
   1   0  12   94.84    2.18
  -1   0 -12   94.78    3.92
  -1   0 -12   93.20    1.95
   1   0  12   90.34    2.08
   1   0  12   92.86    2.15
  -1   0 -12   94.97    4.15
   1   0  12   95.75    2.16
   1   0  12   95.07    2.33
   1   0  12   95.80    2.29
   1   0  12   95.24    2.19
  -1   0 -12   95.63    2.00
  -1   0 -13   38.06    1.24
   1   0  13   37.14    1.30
   1   0  13   37.78    1.30
  -1   0 -13   37.87    1.28
   1   0  13   37.44    1.40
  -1   0 -13   35.93    1.15
   1   0  13   35.97    1.34
   1   0  13   37.83    1.45
  -1   0 -13   36.02    1.19
  -1   0 -13   38.97    1.33
  -1   0 -13   36.01    2.33
   1   0  13   36.68    1.31
  -1   0 -14   -0.39    0.41
   1   0  14   -0.21    0.50
   1   0  14   -0.45    0.42
  -1   0 -14   -0.02    0.30
   1   0  14   -0.05    0.35
  -1   0 -14    0.20    0.34
   1   0  14   -0.26    0.34
  -1   0 -14   -0.19    0.26
   1   0  15   16.54    0.69
  -1   0 -15   17.68    0.71
   1   0  15   16.94    0.77
  -1   0 -15   17.10    0.73
   1   0  15   18.22    0.84
   1   0  15   15.76    0.73
  -1   0 -15   16.33    0.65
   1   0  15   17.05    0.65
  -1   0 -15   17.16    0.74
   1   0  16    0.15    0.31
  -1   0 -16    0.87    0.29
  -1   0 -16    0.92    0.30
   1   0  16    0.41    0.28
  -1   0 -16    0.76    0.26
  -1  -1  15    2.74    0.42
  -1  -1  15    2.38    0.39
  -1  -1  15    1.44    0.32
   1   1 -15    2.59    0.37
  -1  -1  15    2.43    0.35
   1   1 -15    2.03    0.34
   1   1 -15    2.52    0.35
   1   1 -15    2.34    0.34
  -1  -1  14   19.99    0.94
  -1  -1  14   21.90    0.98
   1   1 -14   21.20    0.90
  -1  -1  14   18.51    0.90
   1   1 -14   18.41    0.80
   1   1 -14   21.47    0.91
   1   1 -14   20.98    0.90
  -1  -1  14   21.59    0.87
  -1  -1  14   22.54    1.01
   1   1 -14   22.02    0.89
   1   1 -13    2.18    0.49
  -1  -1  13    1.43    0.46
   1   1 -13    1.61    0.46
  -1  -1  13    2.02    0.56
  -1  -1  13    1.81    0.54
   1   1 -13    1.90    0.35
  -1  -1  13    2.17    0.52
   1   1 -13    1.39    0.44
   1   1 -13    1.47    0.38
  -1  -1  12    0.40    0.41
  -1  -1  12    0.21    0.44
  -1  -1  12    0.45    0.44
   1   1 -12    1.06    0.34
   1   1 -12    0.58    0.43
   1   1 -12    0.25    0.37
  -1  -1  12    0.71    0.35
  -1  -1  12    0.81    0.52
  -1  -1  12    0.68    0.36
   1   1 -12    0.22    0.45
   1   1 -12    0.73    0.42
   1   1 -11    8.31    0.61
  -1  -1  11   11.00    0.73
   1   1 -11    8.80    0.72
   1   1 -11    8.88    1.35
   1   1 -11    7.84    1.24
  -1  -1  11    8.87    0.76
  -1  -1  11    7.74    0.73
  -1  -1  11    8.25    0.77
  -1  -1  11    8.87    0.78
   1   1 -11    8.23    0.73
  -1  -1  11    8.28    0.65
   1   1 -10    4.66    0.55
  -1  -1  10    3.70    1.07
  -1  -1  10    3.98    0.50
  -1  -1  10    3.34    0.45
  -1  -1  10    4.10    0.54
   1   1 -10    4.00    0.44
  -1  -1  10    4.27    0.57
   1   1 -10    3.36    0.51
  -1  -1  10    3.94    0.58
   1   1 -10    3.83    1.03
  -1  -1  10    3.64    0.53
   1   1  -9  322.74    3.88
   1   1  -9  322.81    6.32
   1   1  -9  324.11    3.78
   1   1  -9  333.54    6.99
   1   1  -9  312.02    6.83
  -1  -1   9  303.99    7.68
  -1  -1   8  182.90    5.38
   1   1  -8  180.02    2.63
   1   1  -8  188.10    4.92
   1   1  -8  176.67    2.53
   1   1  -8  179.59    4.37
   1   1  -8  179.33    4.79
   1   1  -8  171.64    2.34
   1   1  -7  318.92    3.36
   1   1  -7  333.33    6.17
  -1  -1   7  325.42    6.59
   1   1  -7  324.12    6.07
   1   1  -7  335.94    5.65
  -1  -1   6  308.89    5.83
   1   1  -6  311.46    5.41
   1   1  -6  311.28    5.45
   1   1  -6  303.68    4.96
   1   1  -6  296.41    3.01
  -1  -1   5   61.90    2.31
   1   1  -5   63.63    2.22
   1   1  -5   61.87    2.03
   1   1  -5   66.39    2.23
  -1  -1   5   64.58    2.65
   1   1  -4   94.03    1.66
  -1  -1   4   89.33    2.73
   1   1  -4   90.76    2.41
   1   1  -4   92.93    2.39
   1   1  -4   88.57    2.26
   1   1  -3 1008.93    8.51
  -1  -1   3 1018.62    9.33
   1   1  -3 1041.22    7.40
   1   1  -3 1015.64    8.89
  -1  -1   2 1628.92   11.78
   1   1  -2 1635.16   11.47
   1   1  -2 1634.40   10.56
  -1  -1   1  172.86    2.29
   1   1  -1  176.36    2.31
   1   1   0 2676.95   16.54
   1   1   0 2617.85   16.25
   1   1   1 4838.89   28.40
   1   1   1 5038.58   28.59
   1   1   2 1361.64    9.71
  -1  -1  -2 1281.42    8.23
  -1  -1  -3 1257.58    8.04
  -1  -1  -3 1242.28    9.18
   1   1   3 1269.58   10.97
   1   1   4 1106.12   10.61
  -1  -1  -4 1087.17    9.31
   1   1   4 1063.63    7.09
  -1  -1  -4 1108.02    9.31
  -1  -1  -4 1103.10    8.91
  -1  -1  -4 1054.93    7.62
  -1  -1  -5   53.31    1.42
   1   1   5   56.16    2.40
   1   1   5   53.13    1.39
  -1  -1  -5   60.56    1.96
   1   1   5   58.95    1.24
  -1  -1  -5   59.62    1.97
  -1  -1  -5   56.19    1.81
   1   1   6   48.65    2.38
  -1  -1  -6   49.70    1.99
   1   1   6   45.11    1.39
  -1  -1  -6   50.96    1.01
  -1  -1  -7    1.08    0.61
  -1  -1  -7    0.77    0.46
  -1  -1  -7    0.84    0.38
  -1  -1  -7    0.64    0.51
  -1  -1  -7    0.50    0.31
   1   1   7    0.57    0.73
  -1  -1  -7    0.51    0.21
   1   1   8  121.16    3.89
   1   1   8  124.99    4.61
  -1  -1  -8  120.66    3.51
  -1  -1  -8  117.45    3.64
  -1  -1  -8  121.31    1.90
  -1  -1  -8  121.87    3.74
  -1  -1  -8  117.61    3.12
  -1  -1  -8  118.83    1.90
  -1  -1  -9   90.12    1.75
   1   1   9   87.85    4.24
  -1  -1  -9   94.23    3.52
  -1  -1  -9   93.55    1.80
  -1  -1  -9   92.34    3.36
  -1  -1  -9   99.84    3.62
  -1  -1  -9   89.52    1.74
   1   1   9   82.20    3.51
  -1  -1  -9   90.71    1.80
  -1  -1 -10   82.89    1.74
  -1  -1 -10   80.22    1.77
  -1  -1 -10   81.44    3.33
  -1  -1 -10   78.54    3.47
   1   1  10   82.35    1.81
  -1  -1 -10   78.30    1.78
   1   1  10   75.26    4.24
  -1  -1 -10   80.54    3.55
   1   1  10   72.79    3.50
   1   1  10   77.87    1.92
   1   1  10   79.81    1.96
   1   1  10   75.94    2.06
   1   1  11    3.31    0.54
  -1  -1 -11    3.47    1.01
   1   1  11    1.75    0.70
   1   1  11    4.01    0.63
   1   1  11    3.88    0.58
   1   1  11    4.13    0.53
  -1  -1 -11    3.22    0.49
  -1  -1 -11    2.92    0.45
   1   1  11    3.48    0.58
  -1  -1 -11    3.96    0.95
   1   1  11    3.58    0.53
  -1  -1 -11    3.60    0.96
   1   1  11    5.19    1.40
   1   1  11    3.24    0.55
   1   1  12  247.01    3.55
  -1  -1 -12  251.92    3.49
   1   1  12  236.28    3.74
   1   1  12  237.25    3.50
  -1  -1 -12  239.97    3.31
   1   1  12  250.40    3.73
   1   1  12  237.37    4.01
   1   1  12  236.23    3.73
  -1  -1 -12  231.54    5.93
  -1  -1 -12  245.12    6.60
  -1  -1 -12  248.08    3.44
  -1  -1 -12  247.73    3.43
   1   1  12  247.13    3.77
   1   1  13   17.36    0.93
  -1  -1 -13   17.39    0.87
   1   1  13   17.29    1.00
   1   1  13   17.44    0.94
   1   1  13   16.69    0.90
  -1  -1 -13   17.13    0.83
  -1  -1 -13   18.39    0.94
   1   1  13   17.84    1.00
   1   1  13   17.17    0.99
   1   1  13   17.67    1.01
  -1  -1 -13   17.43    0.91
  -1  -1 -13   17.35    0.92
  -1  -1 -13   18.39    0.95
   1   1  13   18.25    0.95
   1   1  14    2.34    0.49
  -1  -1 -14    2.36    0.46
  -1  -1 -14    1.98    0.39
  -1  -1 -14    1.85    0.39
   1   1  14    2.37    0.45
   1   1  14    2.68    0.57
   1   1  14    2.27    0.48
  -1  -1 -14    2.68    0.44
   1   1  14    2.56    0.48
  -1  -1 -15   35.36    1.07
   1   1  15   33.44    0.95
   1   1  15   32.06    0.96
  -1  -1 -15   33.18    0.96
   1   1  15   30.87    0.96
   1   1  15   34.02    1.15
   1   1  15   34.62    1.09
  -1  -1 -15   32.28    0.92
  -1  -1 -15   33.21    1.00
  -1  -1 -15   34.25    1.01
  -1  -1 -16   74.82    1.13
   1   1  16   78.33    1.41
   1   1  16   79.67    1.33
  -1  -1 -16   78.00    1.29
  -1  -1 -16   81.94    1.33
  -1  -1 -16   76.45    1.22
  -1  -2  15    5.15    0.43
   1   2 -15    4.88    0.40
   1   2 -15    4.53    0.40
  -1  -2  15    3.92    0.39
   1   2 -15    4.61    0.34
   1   2 -15    5.00    0.41
   1   2 -14    6.71    0.50
  -1  -2  14    8.34    0.61
  -1  -2  14    7.34    0.49
  -1  -2  14    6.87    0.60
   1   2 -14    7.11    0.49
   1   2 -14    6.91    0.52
   1   2 -14    7.16    0.53
   1   2 -14    6.19    0.44
  -1  -2  14    6.87    0.58
   1   2 -14    7.21    0.55
  -1  -2  13    8.07    0.73
   1   2 -13    8.15    0.62
   1   2 -13    7.94    0.63
   1   2 -13    7.43    0.65
   1   2 -13    7.03    0.61
   1   2 -13    7.20    0.60
  -1  -2  13    7.74    0.70
  -1  -2  13    7.83    0.62
  -1  -2  13    7.55    0.69
  -1  -2  13    7.74    0.71
   1   2 -12    1.21    0.41
  -1  -2  12    0.76    0.44
  -1  -2  12    0.78    0.50
  -1  -2  12    1.00    0.50
  -1  -2  12    1.03    0.52
   1   2 -12    1.12    0.45
   1   2 -12    1.41    0.69
   1   2 -12    0.82    0.46
   1   2 -12    0.56    0.41
  -1  -2  12    1.31    0.36
   1   2 -11  201.17    3.09
  -1  -2  11  211.18    3.48
  -1  -2  11  196.68    3.29
  -1  -2  11  206.26    3.07
  -1  -2  11  200.79    3.35
   1   2 -11  189.20    5.77
  -1  -2  11  204.87    3.41
   1   2 -11  183.95    5.29
   1   2 -11  206.19    3.20
  -1  -2  10    0.22    0.40
  -1  -2  10   -1.23    0.91
   1   2 -10    0.24    0.32
   1   2 -10    2.15    0.71
  -1  -2  10    0.64    0.45
  -1  -2  10    0.58    0.40
   1   2 -10   -0.05    0.77
   1   2 -10    0.15    0.39
  -1  -2  10    0.11    0.38
  -1  -2  10    0.17    0.40
   1   2 -10    0.79    0.69
  -1  -2  10    0.53    0.35
  -1  -2   9    0.45    0.35
  -1  -2   9    1.36    0.39
   1   2  -9    0.83    0.34
  -1  -2   9    1.44    0.41
  -1  -2   9    1.39    0.89
   1   2  -9    1.57    0.88
   1   2  -9    1.28    0.40
   1   2  -9    2.36    0.80
  -1  -2   9    1.61    0.43
  -1  -2   9    1.59    0.38
   1   2  -8    6.17    1.08
   1   2  -8    5.63    0.51
   1   2  -8    5.94    1.01
   1   2  -8    5.37    0.49
   1   2  -8    4.28    0.94
  -1  -2   8    4.73    1.12
  -1  -2   7  406.90    7.87
   1   2  -7  423.65    7.48
   1   2  -7  397.01    4.06
   1   2  -7  415.16    6.91
   1   2  -7  400.94    3.93
   1   2  -7  401.20    7.24
   1   2  -6 1176.65   12.60
   1   2  -6 1164.83   12.17
  -1  -2   6 1112.54   13.76
   1   2  -6 1117.00   11.74
  -1  -2   6 1160.33   13.07
   1   2  -6 1085.58    7.75
  -1  -2   5  449.12    7.48
   1   2  -5  470.45    6.87
  -1  -2   5  458.60    7.09
   1   2  -5  452.88    6.70
   1   2  -5  469.44    6.48
   1   2  -4  107.73    2.91
   1   2  -4  107.21    2.81
  -1  -2   4  106.58    3.19
   1   2  -4  107.16    2.74
   1   2  -3  207.09    3.59
   1   2  -3  215.26    3.80
   1   2  -3  212.26    3.65
  -1  -2   3  202.78    3.92
  -1  -2   2  140.08    2.83
   1   2  -2  145.17    2.76
  -1  -2   1  108.99    2.21
   1   2  -1  110.77    2.25
  -1  -2   0  546.83    5.31
   1   2   0  512.68    4.49
   1   2   1 3093.60   18.45
   1   2   1 2975.49   18.19
  -1  -2  -1 3079.38   18.81
   1   2   1 2991.70   18.20
   1   2   2 1638.81   11.29
  -1  -2  -2 1659.10   11.29
  -1  -2  -3   13.99    0.77
  -1  -2  -3   14.49    0.66
  -1  -2  -3   14.45    0.70
  -1  -2  -3   14.76    0.83
   1   2   3   14.47    0.61
  -1  -2  -4  132.79    2.62
  -1  -2  -4  133.17    2.24
   1   2   4  140.68    2.07
  -1  -2  -4  142.34    2.83
   1   2   4  134.07    2.14
  -1  -2  -4  136.81    2.41
   1   2   5   20.15    1.46
  -1  -2  -5   19.13    1.13
  -1  -2  -5   19.14    0.91
  -1  -2  -6  140.15    2.69
  -1  -2  -6  146.70    3.35
   1   2   6  139.80    4.07
   1   2   6  138.08    2.38
  -1  -2  -6  142.96    1.86
  -1  -2  -6  146.05    3.33
   1   2   7  239.40    5.83
  -1  -2  -7  235.69    3.81
  -1  -2  -7  231.89    4.68
  -1  -2  -7  229.62    2.65
  -1  -2  -7  222.27    4.59
  -1  -2  -7  235.50    4.52
  -1  -2  -7  230.31    4.35
   1   2   7  222.56    2.44
   1   2   8   60.72    3.17
  -1  -2  -8   60.04    2.40
  -1  -2  -8   62.83    2.60
  -1  -2  -8   59.42    1.37
  -1  -2  -8   58.89    2.38
  -1  -2  -8   60.42    1.36
  -1  -2  -8   59.04    2.55
  -1  -2  -9   29.18    2.01
  -1  -2  -9   29.89    1.81
  -1  -2  -9   30.19    1.04
  -1  -2  -9   33.24    2.09
   1   2   9   29.36    2.45
  -1  -2  -9   30.35    1.03
   1   2   9   28.41    2.13
  -1  -2  -9   29.78    1.00
  -1  -2  -9   29.79    1.86
  -1  -2 -10   17.02    0.84
  -1  -2 -10   19.78    0.90
  -1  -2 -10   16.32    1.64
  -1  -2 -10   16.91    0.84
  -1  -2 -10   17.73    0.85
   1   2  10   15.68    0.88
   1   2  10   14.37    1.62
  -1  -2 -10   18.35    1.68
   1   2  11    3.87    0.60
   1   2  11    6.24    0.66
   1   2  11    4.07    0.53
  -1  -2 -11    4.49    1.04
  -1  -2 -11    4.51    0.54
   1   2  11    4.36    1.12
  -1  -2 -11    4.20    0.55
   1   2  11    4.96    0.61
   1   2  11    5.50    0.57
  -1  -2 -11    5.24    0.52
  -1  -2 -11    3.94    1.02
  -1  -2 -11    5.10    0.56
   1   2  12    0.38    0.37
  -1  -2 -12    0.59    0.37
  -1  -2 -12    0.44    0.39
  -1  -2 -12    0.78    0.68
   1   2  12    0.69    0.41
   1   2  12    0.19    0.38
  -1  -2 -12    0.42    0.37
   1   2  12    0.43    0.39
  -1  -2 -12    1.91    0.45
   1   2  12    0.52    0.44
  -1  -2 -12    0.31    0.29
   1   2  12    0.46    0.41
   1   2  12   -0.19    0.48
   1   2  13   20.21    0.96
  -1  -2 -13   21.08    0.97
  -1  -2 -13   21.59    1.02
   1   2  13   20.29    1.14
  -1  -2 -13   21.12    1.01
   1   2  13   19.13    0.99
  -1  -2 -13   21.73    0.99
   1   2  13   20.52    1.05
   1   2  13   21.04    1.13
   1   2  13   20.18    1.07
   1   2  13   20.03    1.10
  -1  -2 -13   21.88    1.00
  -1  -2 -13   21.84    1.03
   1   2  14  168.05    2.55
   1   2  14  177.48    2.75
   1   2  14  187.02    2.76
   1   2  14  177.31    2.86
  -1  -2 -14  179.71    2.72
  -1  -2 -14  175.43    2.62
   1   2  14  184.13    2.92
  -1  -2 -14  183.15    2.75
   1   2  14  176.76    2.61
  -1  -2 -14  175.00    2.60
   1   2  14  182.83    2.98
   1   2  14  184.66    2.96
   1   2  15   44.31    1.07
   1   2  15   45.19    1.13
   1   2  15   46.05    1.29
  -1  -2 -15   45.60    1.17
   1   2  15   46.67    1.35
  -1  -2 -15   44.61    1.07
  -1  -2 -15   46.99    1.22
  -1  -2 -15   48.50    1.24
   1   2  15   47.76    1.30
  -1  -2 -15   43.50    1.11
  -1  -2 -16   42.73    0.91
  -1  -2 -16   44.09    0.97
   1   2  16   43.51    1.08
   1   2  16   44.33    1.03
  -1  -2 -16   43.16    0.97
   1   3 -14   22.83    0.75
   1   3 -14   20.40    0.60
   1   3 -14   19.70    0.66
   1   3 -14   22.21    0.73
   1   3 -14   22.03    0.80
  -1  -3  14   23.37    0.82
  -1  -3  14   23.58    0.84
  -1  -3  13   61.89    1.56
  -1  -3  13   61.79    1.56
  -1  -3  13   59.08    1.54
   1   3 -13   56.73    1.41
   1   3 -13   58.36    1.39
   1   3 -13   55.60    1.26
   1   3 -13   58.13    1.37
  -1  -3  13   56.59    1.24
  -1  -3  13   61.21    1.58
   1   3 -13   58.88    1.41
  -1  -3  12    5.40    0.65
  -1  -3  12    5.73    0.67
  -1  -3  12    5.03    0.50
   1   3 -12    5.06    0.58
   1   3 -12    5.38    0.58
  -1  -3  12    5.82    0.67
  -1  -3  12    5.27    0.52
  -1  -3  12    5.33    0.65
   1   3 -12    5.40    0.57
   1   3 -12    5.01    0.57
   1   3 -12    4.94    0.50
  -1  -3  11  107.26    2.37
  -1  -3  11  108.73    2.16
   1   3 -11  101.27    2.04
   1   3 -11   94.88    4.12
  -1  -3  11  109.62    2.45
   1   3 -11  108.19    2.29
   1   3 -11  106.29    2.19
  -1  -3  11  105.69    2.40
   1   3 -11  102.49    2.14
   1   3 -11   98.24    3.92
  -1  -3  11  100.66    2.09
  -1  -3  10   91.30    2.02
  -1  -3  10   94.61    2.22
  -1  -3  10   94.72    2.10
   1   3 -10   86.78    3.62
  -1  -3  10   91.96    2.23
   1   3 -10   93.99    1.99
   1   3 -10   92.97    4.11
   1   3 -10   87.10    3.79
   1   3 -10   97.20    2.22
   1   3 -10   95.58    2.09
  -1  -3  10   95.88    2.29
   1   3 -10   99.80    4.18
  -1  -3  10   95.72    2.30
  -1  -3   9   11.91    0.83
   1   3  -9   12.01    1.58
  -1  -3   9   13.17    0.80
   1   3  -9   12.29    1.59
  -1  -3   9   11.18    0.84
  -1  -3   9   14.67    1.99
  -1  -3   9   11.93    0.84
  -1  -3   9   12.51    0.86
  -1  -3   9   12.80    0.82
   1   3  -9   12.52    0.79
   1   3  -9   11.74    0.71
   1   3  -9   11.42    1.48
  -1  -3   8  457.65    5.17
  -1  -3   8  452.16    9.72
   1   3  -8  481.89    9.16
   1   3  -8  468.45    4.84
   1   3  -8  507.49    8.69
  -1  -3   8  461.76    5.20
   1   3  -8  496.03    8.92
   1   3  -7  482.86    8.70
   1   3  -7  491.36    8.36
  -1  -3   7  467.59    9.20
   1   3  -7  494.01    8.17
  -1  -3   7  461.25    9.59
   1   3  -7  458.23    4.58
  -1  -3   6   33.26    2.44
   1   3  -6   32.49    0.98
   1   3  -6   31.84    0.90
   1   3  -6   33.50    2.05
  -1  -3   6   37.86    2.39
   1   3  -6   34.63    2.04
  -1  -3   5  119.69    4.04
   1   3  -5  117.89    1.67
   1   3  -5  127.75    3.57
   1   3  -5  131.34    3.61
   1   3  -4  183.78    4.32
   1   3  -4  183.19    4.02
   1   3  -4  189.71    4.10
  -1  -3   4  183.41    4.59
  -1  -3   3  366.50    6.02
   1   3  -3  364.62    5.93
   1   3  -3  367.84    5.44
   1   3  -3  384.21    5.58
  -1  -3   2  294.80    4.84
   1   3  -2  289.93    4.70
   1   3  -2  302.05    4.86
   1   3  -2  303.74    4.94
   1   3  -2  288.06    4.65
   1   3  -2  305.02    4.50
  -1  -3   1  227.09    3.88
  -1  -3   1  239.59    4.10
   1   3  -1  237.74    3.99
   1   3  -1  234.18    4.00
   1   3  -1  232.23    3.91
  -1  -3   1  241.87    2.77
   1   3  -1  229.62    3.80
  -1  -3   0    1.69    0.52
   1   3   0    1.34    0.42
   1   3   0    1.44    0.43
   1   3   0    1.50    0.25
   1   3   1  407.13    5.01
   1   3   1  372.77    4.37
   1   3   1  400.66    3.90
   1   3   1  381.79    4.41
  -1  -3  -1  421.19    4.95
  -1  -3  -2  673.23    5.42
  -1  -3  -2  678.21    6.10
   1   3   2  699.53    7.10
  -1  -3  -2  709.19    6.67
   1   3   2  679.02    6.05
   1   3   3  645.09    6.43
  -1  -3  -3  652.89    6.40
  -1  -3  -3  631.18    5.73
   1   3   3  642.27    6.98
   1   3   3  647.54    7.06
   1   3   3  628.05    6.15
   1   3   3  639.19    6.16
   1   3   4  822.37    7.23
  -1  -3  -4  842.88    7.70
  -1  -3  -4  822.17    7.58
   1   3   4  847.53    7.77
  -1  -3  -5  391.13    4.99
   1   3   5  401.38    4.78
   1   3   5  405.52    4.68
  -1  -3  -5  400.83    3.47
  -1  -3  -5  395.91    5.20
  -1  -3  -5  412.81    6.01
  -1  -3  -6    8.64    0.79
  -1  -3  -6    8.20    0.82
  -1  -3  -6    8.68    0.47
  -1  -3  -6    8.02    0.93
  -1  -3  -6    8.83    0.74
  -1  -3  -7  611.26    7.84
  -1  -3  -7  605.89    7.19
  -1  -3  -7  615.79    5.20
  -1  -3  -7  627.83    5.22
  -1  -3  -7  628.16    7.28
   1   3   7  605.01    4.84
  -1  -3  -8    2.49    0.35
   1   3   8    1.69    0.32
  -1  -3  -8    1.91    0.52
  -1  -3  -8    3.17    0.37
  -1  -3  -8    1.96    0.65
  -1  -3  -8    1.78    0.62
  -1  -3  -8    1.90    0.50
  -1  -3  -8    1.79    0.33
  -1  -3  -8    2.50    0.36
   1   3   9   12.38    1.49
  -1  -3  -9   13.90    1.24
  -1  -3  -9   15.64    0.76
  -1  -3  -9   16.80    1.45
  -1  -3  -9   13.95    1.37
  -1  -3  -9   16.24    0.74
  -1  -3  -9   17.07    0.81
  -1  -3  -9   16.84    1.50
   1   3  10   37.17    2.57
  -1  -3 -10   41.33    1.29
  -1  -3 -10   44.74    2.55
  -1  -3 -10   43.29    1.33
   1   3  10   38.37    1.42
  -1  -3 -10   42.53    1.26
   1   3  10   43.93    1.42
  -1  -3 -10   39.08    2.33
  -1  -3 -10   48.58    1.42
  -1  -3 -10   41.32    1.28
   1   3  10   42.19    1.38
  -1  -3 -11    0.16    0.33
  -1  -3 -11    0.45    0.36
   1   3  11   -0.88    0.64
  -1  -3 -11    0.57    0.58
   1   3  11    0.84    0.42
  -1  -3 -11    0.02    0.31
  -1  -3 -11   -0.02    0.33
   1   3  11    0.66    0.40
   1   3  11    0.56    0.41
   1   3  11    0.41    0.39
  -1  -3 -12   38.30    1.31
  -1  -3 -12   38.10    2.51
  -1  -3 -12   38.83    1.36
  -1  -3 -12   38.94    1.37
   1   3  12   42.50    1.38
  -1  -3 -12   39.02    1.34
   1   3  12   39.21    1.42
   1   3  12   39.19    1.45
  -1  -3 -12   37.77    1.28
   1   3  12   36.73    1.48
  -1  -3 -12   38.00    1.35
  -1  -3 -13   26.90    1.15
  -1  -3 -13   27.28    1.04
   1   3  13   27.45    1.24
   1   3  13   26.12    1.18
  -1  -3 -13   25.72    1.12
   1   3  13   25.08    1.21
   1   3  13   25.78    1.14
   1   3  13   25.85    1.10
  -1  -3 -13   27.04    1.07
  -1  -3 -13   26.70    1.11
   1   3  13   25.78    1.23
  -1  -3 -14   45.32    1.35
   1   3  14   44.87    1.45
  -1  -3 -14   43.46    1.20
  -1  -3 -14   45.55    1.35
   1   3  14   45.62    1.48
  -1  -3 -14   46.64    1.33
   1   3  14   45.31    1.43
   1   3  14   43.93    1.33
   1   3  14   42.61    1.34
  -1  -3 -14   49.59    1.42
   1   3  15   86.69    1.66
   1   3  15   87.64    1.83
  -1  -3 -15   87.28    1.68
   1   3  15   90.02    1.77
  -1  -3 -15   88.37    1.70
  -1  -3 -15   86.51    1.62
   1   3  15   86.77    1.57
   1   3  15   90.36    1.85
   1   3  16    2.55    0.40
   1   3  16    2.41    0.37
  -1  -3 -16    2.06    0.26
  -1  -3 -16    2.43    0.34
  -1  -3 -16    2.33    0.32
   1   4 -14    1.62    0.27
   1   4 -14    1.46    0.29
  -1  -4  14    2.04    0.34
   1   4 -13   65.34    1.40
   1   4 -13   64.97    1.25
  -1  -4  13   69.79    1.45
   1   4 -13   65.20    1.24
   1   4 -13   67.38    1.32
  -1  -4  12    4.23    0.58
  -1  -4  12    3.39    0.51
  -1  -4  12    5.27    0.62
  -1  -4  12    4.54    0.44
   1   4 -12    4.28    0.46
   1   4 -12    3.63    0.42
   1   4 -12    4.53    0.46
   1   4 -12    3.41    0.46
   1   4 -11    7.58    1.21
   1   4 -11    9.86    0.67
  -1  -4  11   10.91    0.71
   1   4 -11    9.39    0.73
  -1  -4  11   10.10    0.82
  -1  -4  11    9.32    0.75
  -1  -4  11    9.48    0.82
   1   4 -11    9.48    0.66
   1   4 -11    9.23    1.30
   1   4 -11    9.87    0.69
  -1  -4  11   11.09    0.86
  -1  -4  10   -0.25    0.52
   1   4 -10    1.80    0.90
   1   4 -10   -0.53    0.41
  -1  -4  10   -0.31    0.46
  -1  -4  10    0.52    0.46
   1   4 -10   -1.72    0.86
   1   4 -10   -0.15    0.35
  -1  -4  10   -0.25    0.37
  -1  -4  10    0.60    0.46
   1   4 -10    0.17    0.63
   1   4 -10    0.02    0.42
   1   4 -10    0.22    0.35
  -1  -4   9   94.12    2.17
   1   4  -9   97.54    2.22
   1   4  -9   89.89    3.81
  -1  -4   9   92.95    2.29
   1   4  -9   85.14    4.04
   1   4  -9   91.90    2.04
   1   4  -9   95.37    2.00
   1   4  -9   97.32    4.28
  -1  -4   9   94.79    2.14
  -1  -4   9   94.86    2.28
   1   4  -9   93.72    4.05
  -1  -4   9   95.41    2.31
   1   4  -8    3.59    0.47
  -1  -4   8    2.87    0.54
   1   4  -8    3.18    0.55
   1   4  -8    3.26    0.98
  -1  -4   8    3.69    0.56
   1   4  -8    3.55    1.07
  -1  -4   8    3.16    0.50
  -1  -4   8    3.88    0.50
  -1  -4   8    3.52    0.57
   1   4  -8    2.83    0.90
   1   4  -8    3.01    1.00
  -1  -4   8    3.25    1.06
   1   4  -7   50.54    1.37
  -1  -4   7   47.47    3.26
   1   4  -7   52.47    1.50
  -1  -4   7   52.04    3.26
   1   4  -7   50.08    2.77
  -1  -4   7   49.38    1.56
   1   4  -7   52.74    2.88
  -1  -4   7   49.50    1.56
   1   4  -7   53.20    2.88
   1   4  -7   52.69    3.04
   1   4  -6  639.82    5.57
   1   4  -6  673.83    9.98
  -1  -4   6  678.93   11.19
   1   4  -6  666.76   10.14
   1   4  -6  675.76   10.63
  -1  -4   6  633.37   11.38
  -1  -4   5   21.32    2.00
   1   4  -5   22.01    1.80
   1   4  -5   20.25    1.64
   1   4  -5   21.34    0.86
   1   4  -5   22.36    1.73
  -1  -4   5   20.76    1.83
   1   4  -5   21.59    1.69
   1   4  -5   20.87    1.59
   1   4  -4   79.16    2.95
  -1  -4   4   75.93    3.22
   1   4  -4   80.58    2.98
   1   4  -4   80.57    3.18
   1   4  -4   76.77    2.80
   1   4  -4   81.92    3.12
   1   4  -4   78.80    1.53
   1   4  -3   37.29    2.00
   1   4  -3   35.35    1.98
   1   4  -3   36.25    1.79
   1   4  -3   36.90    1.95
  -1  -4   3   37.98    2.17
   1   4  -3   34.20    1.88
   1   4  -2  627.23    8.13
  -1  -4   2  645.31    8.54
   1   4  -2  622.96    8.35
   1   4  -2  635.90    8.23
   1   4  -2  642.73    8.01
   1   4  -1  104.08    2.88
   1   4  -1  104.37    3.01
   1   4  -1  104.13    2.93
  -1  -4   1  108.72    3.13
  -1  -4   1  104.94    3.02
   1   4  -1  103.14    2.88
   1   4   0  425.54    6.02
  -1  -4   0  428.69    6.15
  -1  -4   0  425.25    6.12
   1   4   0  423.24    5.87
   1   4   0  412.85    5.88
  -1  -4   0  431.21    4.91
   1   4   1  363.58    4.91
  -1  -4  -1  381.97    4.94
   1   4   1  390.72    5.61
   1   4   1  360.45    4.93
   1   4   1  357.49    3.64
  -1  -4  -1  395.06    5.58
  -1  -4  -2 1263.19   11.30
   1   4   2 1289.90   11.05
   1   4   2 1337.99   11.90
   1   4   2 1305.72   11.89
   1   4   2 1285.46    9.71
  -1  -4  -2 1350.35   11.62
  -1  -4  -3  418.92    5.89
   1   4   3  423.02    6.02
  -1  -4  -3  428.75    5.67
   1   4   3  415.18    6.01
   1   4   3  398.19    5.19
   1   4   3  402.66    4.91
   1   4   4    2.70    0.51
   1   4   4    3.65    0.55
  -1  -4  -4    1.99    0.52
   1   4   4    2.24    0.50
   1   4   4    2.05    0.47
  -1  -4  -4    1.60    0.56
   1   4   5  680.81    7.29
   1   4   5  667.98    7.27
   1   4   5  671.84    7.68
  -1  -4  -5  668.68    7.77
  -1  -4  -5  683.90    5.23
  -1  -4  -6 2258.00   19.02
  -1  -4  -6 2109.84   13.45
   1   4   6 2076.98   12.99
  -1  -4  -6 2145.88   16.99
   1   4   6 2129.54   13.50
   1   4   6 2181.00   16.31
   1   4   6 2187.54   16.20
   1   4   7  357.29    3.43
  -1  -4  -7  370.64    3.80
   1   4   7  377.44    5.59
  -1  -4  -7  367.91    3.81
  -1  -4  -7  358.62    5.87
   1   4   7  358.68    3.80
   1   4   8    3.88    0.42
  -1  -4  -8    3.93    0.74
  -1  -4  -8    3.91    0.41
  -1  -4  -8    3.89    0.44
  -1  -4  -8    3.45    0.74
  -1  -4  -9  174.49    4.59
  -1  -4  -9  171.86    2.59
  -1  -4  -9  176.49    2.45
   1   4   9  165.38    2.42
  -1  -4  -9  173.69    5.01
  -1  -4 -10   37.61    1.28
  -1  -4 -10   37.66    1.29
   1   4  10   31.05    2.36
  -1  -4 -10   41.24    1.28
   1   4  10   34.83    1.20
  -1  -4 -10   35.66    1.14
   1   4  10   33.38    1.30
  -1  -4 -10   37.92    2.25
   1   4  11  135.29    2.47
  -1  -4 -11  142.15    2.60
   1   4  11  138.56    2.64
  -1  -4 -11  145.33    2.55
   1   4  11  137.53    2.66
   1   4  11  140.75    2.77
  -1  -4 -11  137.31    2.48
  -1  -4 -11  145.61    2.64
  -1  -4 -11  147.20    2.65
  -1  -4 -11  142.90    2.39
   1   4  12   76.23    2.03
   1   4  12   72.47    1.80
  -1  -4 -12   78.24    1.88
  -1  -4 -12   76.07    1.94
   1   4  12   76.52    1.95
  -1  -4 -12   75.52    1.89
  -1  -4 -12   74.29    1.73
   1   4  12   78.21    1.99
  -1  -4 -12   77.90    1.96
   1   4  13    4.58    0.68
  -1  -4 -13    5.07    0.57
   1   4  13    5.19    0.61
   1   4  13    4.58    0.58
  -1  -4 -13    4.97    0.60
  -1  -4 -13    4.85    0.61
   1   4  13    6.15    0.70
   1   4  13    5.14    0.56
  -1  -4 -14   27.24    1.09
  -1  -4 -14   26.81    1.05
  -1  -4 -14   26.35    0.95
  -1  -4 -14   26.38    1.01
   1   4  14   26.33    1.02
   1   4  14   27.63    1.14
   1   4  14   26.68    1.03
   1   4  14   23.46    1.03
  -1  -4 -14   25.76    0.91
   1   4  14   26.09    1.09
   1   4  14   27.29    1.19
   1   4  15   25.99    1.00
   1   4  15   25.74    0.98
  -1  -4 -15   24.21    0.78
  -1  -4 -15   25.81    0.92
   1   4  15   25.03    0.83
  -1  -4 -15   24.57    0.86
   1   4  15   24.92    0.94
   1   4  15   23.48    0.82
   1   4  15   24.44    0.87
   1   4  16   52.02    1.08
  -1  -4 -16   53.69    1.09
   1   4  16   51.99    1.13
   1   5 -13    0.64    0.28
   1   5 -13    0.35    0.24
  -1  -5  13    0.47    0.32
   1   5 -12   17.45    0.61
   1   5 -12   17.38    0.73
   1   5 -12   17.86    0.74
  -1  -5  12   17.33    0.65
  -1  -5  11   13.77    0.71
   1   5 -11   12.52    0.73
  -1  -5  11   13.25    0.81
   1   5 -11   11.81    0.62
   1   5 -11   12.79    0.63
   1   5 -11   13.50    0.76
  -1  -5  11   11.74    0.72
   1   5 -10  124.50    2.10
   1   5 -10  128.95    2.41
  -1  -5  10  124.54    2.34
   1   5 -10  123.60    2.15
  -1  -5  10  137.48    2.44
   1   5 -10  121.41    4.64
   1   5 -10  123.48    2.12
  -1  -5  10  132.46    2.59
  -1  -5  10  135.56    2.65
   1   5 -10  123.28    4.46
  -1  -5   9   88.82    2.03
   1   5  -9   90.60    1.85
  -1  -5   9   94.93    2.26
  -1  -5   9   93.78    2.30
  -1  -5   9   94.88    2.15
   1   5  -9   92.90    4.02
   1   5  -9   91.17    3.86
   1   5  -9   96.13    2.15
   1   5  -9   90.18    1.85
   1   5  -9   97.47    4.30
  -1  -5   8    5.15    0.66
  -1  -5   8    5.30    0.61
   1   5  -8    4.55    1.09
  -1  -5   8    6.55    0.71
   1   5  -8    5.61    1.21
   1   5  -8    4.55    1.16
  -1  -5   8    4.16    0.56
   1   5  -8    6.90    1.36
   1   5  -8    6.73    0.69
  -1  -5   7  661.54    6.34
  -1  -5   7  697.28    6.57
   1   5  -7  690.94    6.51
  -1  -5   7  676.36   12.88
  -1  -5   7  665.51    6.61
   1   5  -7  724.40   11.54
  -1  -5   7  668.63    6.84
  -1  -5   7  681.09    6.87
   1   5  -7  679.32   11.78
   1   5  -7  707.95   11.24
   1   5  -7  727.45   12.02
  -1  -5   7  648.69   13.07
   1   5  -6    5.93    1.24
   1   5  -6    7.87    1.33
  -1  -5   6    6.41    0.63
   1   5  -6    6.48    0.62
  -1  -5   6    6.20    1.39
  -1  -5   6    6.75    0.66
  -1  -5   6    5.93    1.20
   1   5  -6    7.73    1.31
   1   5  -6    5.10    1.18
  -1  -5   6    7.11    0.68
   1   5  -5  835.17   11.72
  -1  -5   5  826.35   13.44
   1   5  -5  841.02   12.45
  -1  -5   5  846.60   12.91
   1   5  -5  856.04   12.33
   1   5  -5  858.75   11.94
   1   5  -5  838.41    7.02
   1   5  -4  161.14    4.78
   1   5  -4  153.71    4.53
   1   5  -4  152.93    4.76
  -1  -5   4  152.05    5.06
   1   5  -4  150.30    2.34
   1   5  -4  156.47    4.61
  -1  -5   4  161.24    4.98
   1   5  -3  416.88    7.44
  -1  -5   3  415.71    8.00
   1   5  -3  412.77    7.69
   1   5  -3  401.87    3.99
   1   5  -3  421.91    7.32
   1   5  -3  413.69    7.24
  -1  -5   2   26.40    1.91
   1   5  -2   22.70    0.77
   1   5  -2   20.61    1.57
   1   5  -2   22.22    1.64
   1   5  -2   21.44    1.60
   1   5  -2   22.21    1.72
  -1  -5   1   11.79    1.26
  -1  -5   1   11.22    1.29
   1   5  -1   13.53    1.24
   1   5  -1   11.46    1.25
   1   5  -1   12.41    1.20
   1   5  -1   12.60    0.62
  -1  -5   0  182.06    4.43
  -1  -5   0  186.76    4.58
   1   5   0  186.47    4.24
   1   5   0  185.43    4.39
   1   5   0  182.61    2.33
   1   5   0  182.57    4.14
   1   5   0  175.71    3.76
  -1  -5  -1  195.54    4.42
  -1  -5  -1  197.54    3.81
   1   5   1  186.74    4.32
   1   5   1  192.52    4.34
   1   5   1  195.77    3.93
   1   5   1  187.34    3.91
   1   5   2  269.18    5.14
   1   5   2  252.61    5.07
   1   5   2  265.93    4.64
  -1  -5  -2  251.24    4.67
  -1  -5  -2  267.56    5.08
   1   5   3  256.62    4.50
   1   5   3  269.43    5.18
   1   5   3  266.05    5.26
  -1  -5  -3  276.09    5.09
  -1  -5  -4  543.79    7.46
   1   5   4  544.08    6.98
   1   5   4  531.90    6.92
   1   5   4  549.12    7.92
   1   5   5  225.15    4.34
   1   5   5  213.78    4.16
   1   5   5  218.57    4.40
  -1  -5  -5  220.48    4.68
  -1  -5  -5  219.76    5.05
   1   5   5  214.43    2.67
   1   5   6  876.45    6.85
  -1  -5  -6  907.54   11.45
   1   5   6  899.98    9.53
   1   5   6  933.15    9.64
   1   5   6  860.23    6.36
  -1  -5  -6  899.41   10.37
  -1  -5  -6  829.21    6.63
   1   5   7  168.85    2.24
   1   5   7  168.30    3.88
  -1  -5  -7  171.18    4.91
   1   5   7  165.89    2.50
  -1  -5  -7  162.24    4.20
  -1  -5  -8   30.97    1.90
   1   5   8   31.97    1.00
  -1  -5  -8   31.99    2.22
  -1  -5  -8   28.67    0.96
   1   5   9  122.50    2.17
   1   5   9  112.24    2.28
  -1  -5  -9  118.61    2.24
  -1  -5  -9  117.62    2.28
   1   5   9  118.52    2.04
  -1  -5  -9  111.13    2.05
  -1  -5  -9  118.45    2.34
  -1  -5  -9  117.35    2.25
  -1  -5  -9  117.84    2.30
   1   5   9  115.53    2.18
   1   5   9  115.61    2.15
   1   5   9  116.87    2.31
   1   5  10   38.84    1.31
   1   5  10   39.96    1.30
   1   5  10   39.76    1.24
  -1  -5 -10   40.19    1.29
  -1  -5 -10   40.37    1.39
  -1  -5 -10   38.33    1.24
   1   5  10   40.07    1.39
  -1  -5 -10   40.49    1.36
   1   5  10   37.18    1.27
   1   5  10   40.09    1.40
  -1  -5 -10   40.88    1.39
   1   5  11   87.81    2.15
   1   5  11   87.33    1.96
  -1  -5 -11   93.47    2.14
  -1  -5 -11   91.38    1.97
  -1  -5 -11   96.17    2.15
  -1  -5 -11   93.44    2.11
  -1  -5 -12   73.92    1.87
  -1  -5 -12   74.66    1.90
   1   5  12   71.53    1.77
  -1  -5 -12   73.90    1.88
   1   5  12   71.80    1.82
  -1  -5 -12   73.35    1.76
   1   5  12   72.43    1.89
   1   5  12   77.13    1.95
   1   5  13   30.67    1.12
  -1  -5 -13   32.27    1.20
   1   5  13   33.33    1.27
   1   5  13   30.76    1.12
  -1  -5 -13   31.46    1.22
   1   5  13   29.18    1.17
  -1  -5 -13   31.91    1.12
  -1  -5 -14  120.57    2.13
  -1  -5 -14  113.69    1.96
   1   5  14  117.08    2.18
   1   5  14  119.58    2.16
   1   5  14  110.63    1.95
   1   5  14  119.68    2.04
   1   5  14  115.55    2.30
  -1  -5 -14  114.78    1.96
   1   5  15  103.54    1.80
  -1  -5 -15  106.88    1.77
   1   5  15  107.60    1.90
  -1  -5 -15  100.23    1.52
   1   5  15  103.66    1.75
   1   5  15  101.32    1.67
   1   5  16  218.56    2.30
   1   5  16  212.72    2.21
   1   6 -12   13.78    0.55
  -1  -6  12   14.30    0.58
   1   6 -12   13.90    0.57
  -1  -6  11   12.05    0.66
   1   6 -11    9.73    0.52
   1   6 -11   11.53    0.62
  -1  -6  11    9.48    0.46
  -1  -6  11   10.21    0.49
  -1  -6  11   10.93    0.56
  -1  -6  10    7.33    0.60
   1   6 -10    7.23    0.57
  -1  -6  10    6.86    0.52
  -1  -6  10    7.27    0.64
  -1  -6  10    7.79    0.58
   1   6 -10    6.47    0.57
   1   6 -10    6.66    0.51
   1   6  -9    0.27    0.33
   1   6  -9    0.41    0.31
   1   6  -9   -0.39    0.81
  -1  -6   9    0.18    0.40
   1   6  -9    1.34    0.78
  -1  -6   9    0.27    0.37
   1   6  -8    2.81    0.94
  -1  -6   8    3.74    0.55
   1   6  -8    3.77    1.06
   1   6  -8    2.97    1.02
   1   6  -8    4.13    0.48
  -1  -6   8    3.69    0.58
   1   6  -8    3.61    0.52
   1   6  -7  252.99    6.95
  -1  -6   7  253.34    3.65
  -1  -6   7  243.80    3.71
   1   6  -7  253.16    3.54
   1   6  -7  260.67    6.77
   1   6  -7  263.75    6.94
  -1  -6   7  245.54    3.74
   1   6  -6   33.40    2.50
  -1  -6   6   31.30    1.29
   1   6  -6   32.57    2.52
   1   6  -6   33.70    2.57
  -1  -6   6   30.27    1.29
   1   6  -6   33.49    2.47
   1   6  -6   30.70    1.19
  -1  -6   6   32.57    1.28
   1   6  -5  422.46    8.72
   1   6  -5  414.77    8.81
  -1  -6   5  376.83    4.68
  -1  -6   5  373.78    4.71
   1   6  -5  422.65    8.59
   1   6  -5  405.38    4.46
  -1  -6   5  395.55    4.77
  -1  -6   5  392.29    9.65
   1   6  -5  423.30    8.49
  -1  -6   5  413.10    9.42
  -1  -6   4    3.95    0.52
   1   6  -4    4.31    1.09
   1   6  -4    4.09    0.47
  -1  -6   4    3.30    0.49
  -1  -6   4    2.91    1.03
   1   6  -4    3.50    1.01
   1   6  -4    3.82    1.11
   1   6  -4    3.64    0.97
  -1  -6   4    4.37    1.06
   1   6  -3  188.74    5.27
  -1  -6   3  189.33    5.57
   1   6  -3  185.81    5.19
   1   6  -3  186.50    5.39
   1   6  -3  171.42    2.53
  -1  -6   3  174.16    5.64
   1   6  -3  185.83    5.27
   1   6  -2   20.25    1.74
   1   6  -2   23.27    1.91
  -1  -6   2   21.37    1.94
   1   6  -2   19.55    1.68
   1   6  -2   21.53    0.92
   1   6  -1   12.71    1.36
   1   6  -1   10.82    1.24
   1   6  -1   10.91    1.11
   1   6  -1   10.08    0.65
  -1  -6   1   10.54    1.35
   1   6  -1   10.27    1.28
  -1  -6   0    1.57    0.77
   1   6   0    1.58    0.51
   1   6   0    1.46    0.53
  -1  -6   0    2.44    0.86
   1   6   0    0.95    0.67
   1   6   0    1.68    0.32
  -1  -6  -1    0.39    0.57
   1   6   1    0.52    0.24
   1   6   1    0.50    0.56
  -1  -6  -1    0.38    0.54
   1   6   1    0.28    0.38
  -1  -6  -2   12.63    1.33
   1   6   2   14.20    1.22
   1   6   2   11.53    0.62
   1   6   2   11.81    1.31
   1   6   2   13.39    1.34
  -1  -6  -3  216.95    5.15
   1   6   3  215.57    5.18
   1   6   3  218.63    5.12
   1   6   3  210.31    4.52
  -1  -6  -4  183.01    4.69
  -1  -6  -4  170.52    4.61
   1   6   4  185.91    4.87
   1   6   4  180.17    2.58
   1   6   4  187.93    4.29
   1   6   4  179.75    4.22
   1   6   5  359.50    6.22
  -1  -6  -5  322.56    6.76
   1   6   5  350.41    3.85
   1   6   5  327.03    5.86
   1   6   5  348.47    6.16
  -1  -6  -5  349.88    6.66
   1   6   6    3.02    0.69
  -1  -6  -6    4.12    0.86
   1   6   6    3.27    0.69
   1   6   6    3.79    0.40
   1   6   6    3.34    0.43
   1   6   6    3.52    0.41
  -1  -6  -6    3.22    0.85
   1   6   6    3.58    0.76
  -1  -6  -7   13.97    1.42
   1   6   7   13.69    1.21
   1   6   7   14.22    1.26
   1   6   7   13.66    0.78
  -1  -6  -8   32.64    1.20
   1   6   8   33.89    1.06
   1   6   8   32.83    1.14
   1   6   8   32.65    1.91
   1   6   8   31.27    1.17
   1   6   8   30.59    1.19
  -1  -6  -8   35.59    1.28
  -1  -6  -8   31.34    1.13
   1   6   8   34.02    1.12
   1   6   8   35.93    1.23
  -1  -6  -9   24.84    1.08
  -1  -6  -9   24.25    1.09
  -1  -6  -9   23.83    1.01
   1   6   9   24.32    1.06
   1   6   9   27.41    1.01
   1   6   9   25.42    1.09
   1   6   9   23.99    1.02
  -1  -6  -9   25.68    1.11
   1   6   9   24.04    0.99
   1   6  10  401.28    4.48
  -1  -6 -10  420.84    4.78
   1   6  10  419.19    4.36
  -1  -6 -10  400.06    4.62
  -1  -6 -10  408.70    4.74
   1   6  10  405.47    4.78
  -1  -6 -10  410.60    4.81
   1   6  10  394.59    4.52
   1   6  10  393.81    4.32
   1   6  10  422.59    4.67
   1   6  10  409.29    4.84
  -1  -6 -11  203.84    3.10
  -1  -6 -11  201.98    3.19
   1   6  11  193.31    3.02
  -1  -6 -11  203.96    3.22
  -1  -6 -11  204.91    3.07
   1   6  11  197.57    2.98
  -1  -6 -12   78.38    1.90
  -1  -6 -12   79.68    1.84
   1   6  12   78.34    1.80
   1   6  12   75.02    1.76
   1   6  12   80.46    1.94
   1   6  13    1.00    0.41
   1   6  13    0.20    0.32
  -1  -6 -13    0.11    0.27
   1   6  13    0.52    0.44
   1   6  13   -0.21    0.45
   1   6  14  189.77    2.67
  -1  -6 -14  186.57    2.54
  -1  -6 -14  189.19    2.55
  -1  -6 -14  181.22    2.27
   1   6  14  186.72    2.77
   1   6  15    0.29    0.30
  -1  -6 -15    0.07    0.26
   1   6  15    0.12    0.33
  -1  -6 -15    0.13    0.28
   1   6  15    0.23    0.32
   1   6  15    0.01    0.29
   1   6  16    9.52    0.39
  -1  -6 -16    8.52    0.40
   1   7 -11   46.42    0.95
   1   7 -11   48.06    0.87
  -1  -7  11   45.09    0.85
   1   7 -11   47.51    0.90
  -1  -7  11   48.47    0.91
  -1  -7  10   50.86    1.16
  -1  -7  10   53.95    1.20
   1   7 -10   50.71    1.17
  -1  -7  10   49.61    1.02
   1   7 -10   50.56    1.10
  -1  -7  10   46.98    0.96
  -1  -7   9   30.61    1.06
  -1  -7   9   28.01    0.89
   1   7  -9   26.57    0.91
  -1  -7   9   29.32    0.95
   1   7  -9   25.88    0.99
   1   7  -9   28.73    0.96
  -1  -7   9   30.02    1.05
  -1  -7   8   20.50    0.90
  -1  -7   8   20.56    0.87
   1   7  -8   18.32    0.93
   1   7  -8   18.81    1.80
  -1  -7   8   20.73    0.98
   1   7  -8   19.61    0.85
  -1  -7   8   20.94    1.00
  -1  -7   8   20.64    0.96
   1   7  -7   33.20    1.16
  -1  -7   7   32.98    1.16
  -1  -7   7   33.77    1.30
  -1  -7   7   33.61    1.28
   1   7  -7   32.00    2.34
  -1  -7   7   37.07    1.27
   1   7  -7   31.86    1.25
  -1  -7   7   34.04    1.24
   1   7  -7   34.41    2.46
   1   7  -6   22.71    2.07
   1   7  -6   19.27    1.95
  -1  -7   6   18.92    1.06
  -1  -7   6   18.22    1.00
   1   7  -6   18.72    0.89
   1   7  -6   18.57    1.02
  -1  -7   6   18.93    1.00
  -1  -7   6   18.42    0.94
  -1  -7   6   18.25    0.97
  -1  -7   5   82.16    1.97
  -1  -7   5   78.56    2.06
   1   7  -5   88.39    3.93
  -1  -7   5   83.29    2.06
  -1  -7   5   88.52    2.11
  -1  -7   5   81.68    2.11
  -1  -7   5   81.54    1.92
   1   7  -5   85.09    2.07
   1   7  -5   84.99    3.90
  -1  -7   5   82.53    1.78
   1   7  -4    0.78    0.57
  -1  -7   4    1.59    0.43
  -1  -7   4    1.68    0.39
  -1  -7   4    2.04    0.46
  -1  -7   4    1.27    0.37
  -1  -7   4    2.48    0.49
   1   7  -4    2.29    0.93
   1   7  -4    2.13    0.82
   1   7  -4    3.16    0.99
  -1  -7   4    2.26    0.39
   1   7  -4    1.59    0.45
  -1  -7   4    2.36    0.52
  -1  -7   3  194.64    3.12
  -1  -7   3  199.05    3.07
  -1  -7   3  182.54    3.19
  -1  -7   3  193.87    6.63
  -1  -7   3  201.86    6.22
   1   7  -3  211.01    5.90
   1   7  -3  205.14    3.15
   1   7  -3  201.52    6.01
   1   7  -3  201.46    5.74
  -1  -7   3  180.78    3.16
   1   7  -3  196.25    5.38
  -1  -7   3  195.94    3.00
  -1  -7   3  203.74    3.16
  -1  -7   3  192.25    2.80
  -1  -7   3  192.40    3.27
  -1  -7   2  844.06   12.59
   1   7  -2  836.04    7.17
  -1  -7   2  758.91    7.39
  -1  -7   2  800.66    7.15
  -1  -7   2  795.88    6.71
  -1  -7   2  789.40    7.43
   1   7  -2  837.05   12.35
  -1  -7   2  748.61    7.34
  -1  -7   2  827.94   13.57
   1   7  -2  854.42   12.09
   1   7  -2  808.49   11.20
   1   7  -2  798.83   11.31
  -1  -7   2  793.60    6.96
  -1  -7   2  799.25    7.05
  -1  -7   2  810.11    7.14
   1   7  -1    8.51    1.31
   1   7  -1    8.58    0.65
  -1  -7   1    8.81    0.70
   1   7  -1    8.21    1.09
  -1  -7   1    8.37    1.37
  -1  -7   1    9.85    0.74
  -1  -7   1    9.93    0.74
   1   7  -1    9.31    1.21
  -1  -7   1    8.73    0.61
  -1  -7   1    8.90    0.65
   1   7   0    2.57    0.65
  -1  -7   0    2.84    0.97
   1   7   0    2.85    0.84
   1   7   0    2.28    0.39
   1   7   0    3.28    0.79
   1   7   0    2.77    0.92
  -1  -7  -1    5.29    1.11
   1   7   1    5.96    1.17
   1   7   1    5.07    0.51
   1   7   1    5.82    0.56
   1   7   1    4.70    0.85
  -1  -7  -1    5.51    1.11
   1   7   1    5.78    0.91
   1   7   1    4.79    1.01
  -1  -7  -2   33.97    2.42
   1   7   2   32.59    2.21
   1   7   2   32.26    1.97
   1   7   2   33.70    1.15
   1   7   2   35.62    2.36
  -1  -7  -2   35.37    2.41
   1   7   3   -0.08    0.61
   1   7   3    0.38    0.63
   1   7   3    0.34    0.26
   1   7   3    0.86    0.65
   1   7   3    0.52    0.26
  -1  -7  -3    0.02    0.64
  -1  -7  -4  107.55    4.06
   1   7   4  108.89    3.72
   1   7   4  110.60    3.61
   1   7   4  112.78    3.62
   1   7   4  109.85    2.08
   1   7   4  110.25    2.11
  -1  -7  -5  250.34    6.24
   1   7   5  254.78    5.55
   1   7   5  248.78    5.65
  -1  -7  -5  255.91    3.62
   1   7   5  257.83    3.41
   1   7   5  259.66    5.68
   1   7   6    0.14    0.27
  -1  -7  -6    0.03    0.36
   1   7   6    0.09    0.22
  -1  -7  -6    0.05    0.54
   1   7   6    0.50    0.53
   1   7   6    1.20    0.40
  -1  -7  -6   -0.18    0.34
   1   7   6    0.10    0.39
   1   7   6    0.62    0.33
   1   7   6    0.72    0.54
   1   7   7   97.40    1.85
  -1  -7  -7   99.25    2.19
   1   7   7  100.09    2.14
   1   7   7   99.15    3.40
   1   7   7  104.91    2.17
  -1  -7  -7  104.81    2.31
   1   7   7   99.68    2.07
  -1  -7  -7   92.31    3.77
   1   7   7  102.03    2.12
  -1  -7  -8   40.65    1.38
   1   7   8   41.75    1.33
   1   7   8   41.57    1.28
   1   7   8   40.41    1.40
   1   7   8   41.81    1.22
  -1  -7  -8   43.73    1.51
   1   7   8   42.33    1.39
  -1  -7  -9   26.00    1.06
   1   7   9   26.42    1.09
   1   7   9   27.97    1.04
  -1  -7  -9   28.66    1.24
   1   7   9   28.65    1.10
   1   7   9   28.74    1.19
  -1  -7 -10    5.26    0.55
   1   7  10    4.53    0.57
   1   7  10    4.64    0.54
   1   7  10    5.32    0.58
   1   7  10    5.47    0.63
  -1  -7 -10    5.91    0.62
   1   7  10    4.40    0.53
   1   7  11    4.02    0.53
   1   7  11    4.27    0.57
  -1  -7 -11    4.07    0.45
  -1  -7 -11    4.79    0.55
   1   7  12   51.45    1.37
  -1  -7 -12   51.62    1.38
   1   7  12   54.14    1.55
  -1  -7 -12   53.04    1.36
   1   7  12   51.86    1.36
   1   7  13    0.73    0.39
   1   7  13    1.35    0.37
   1   7  13    2.00    0.44
  -1  -7 -13    1.45    0.33
  -1  -7 -13    0.96    0.41
  -1  -7 -13    0.77    0.35
  -1  -7 -14   60.41    1.19
  -1  -7 -14   60.34    1.18
  -1  -7 -14   63.42    1.32
   1   7  14   61.47    1.33
   1   7  14   59.66    1.33
   1   7  15    1.38    0.31
   1   7  15    1.09    0.28
   1   7  15    1.09    0.32
   1   7  15    1.25    0.31
  -1  -7 -15    1.29    0.30
   1   8  -9   50.76    1.08
  -1  -8   9   60.02    1.19
  -1  -8   9   57.20    1.03
  -1  -8   9   58.28    1.09
   1   8  -9   51.62    0.99
  -1  -8   9   54.16    0.94
   1   8  -9   50.15    0.92
  -1  -8   8    8.20    0.54
   1   8  -8    8.03    0.55
   1   8  -8    8.29    0.48
   1   8  -8    8.61    0.53
  -1  -8   8    8.45    0.49
  -1  -8   8    9.28    0.56
  -1  -8   8    9.33    0.63
  -1  -8   7   12.66    0.69
  -1  -8   7   12.07    0.66
   1   8  -7   11.24    0.70
  -1  -8   7   12.37    0.71
   1   8  -7   12.30    0.66
  -1  -8   7   13.07    0.78
  -1  -8   7   11.96    0.71
   1   8  -7   10.86    0.58
   1   8  -6  104.49    1.99
  -1  -8   6  109.81    2.03
  -1  -8   6  109.24    2.16
  -1  -8   6  110.34    2.22
   1   8  -6  103.43    2.12
  -1  -8   6  111.20    2.14
  -1  -8   6  111.12    2.21
  -1  -8   5    4.10    0.57
  -1  -8   5    4.34    0.54
  -1  -8   5    3.29    0.49
   1   8  -5    3.75    0.53
  -1  -8   5    4.05    0.52
  -1  -8   5    3.65    0.56
  -1  -8   5    4.57    0.59
  -1  -8   5    4.10    0.44
  -1  -8   4    0.90    0.40
  -1  -8   4    1.21    0.41
  -1  -8   4    1.80    0.47
  -1  -8   4    1.39    0.33
   1   8  -4    1.32    0.41
  -1  -8   4    2.20    0.48
  -1  -8   4    0.83    0.40
  -1  -8   4    1.38    0.48
  -1  -8   3   61.32    1.85
  -1  -8   3   66.62    1.60
  -1  -8   3   61.23    1.84
   1   8  -3   65.67    1.76
  -1  -8   3   65.24    1.77
  -1  -8   3   62.54    1.76
   1   8  -3   65.72    3.51
  -1  -8   3   67.34    1.74
  -1  -8   3   64.84    1.77
  -1  -8   2  571.20    5.69
   1   8  -2  575.13   10.52
  -1  -8   2  558.73    5.72
  -1  -8   2  551.91    5.75
   1   8  -2  567.64   10.47
   1   8  -2  550.66    5.68
   1   8  -2  562.43    9.64
  -1  -8   2  555.26    5.77
  -1  -8   2  562.38    5.40
  -1  -8   1 1028.12    8.77
  -1  -8   1  994.73    9.13
   1   8  -1 1074.26   14.68
   1   8  -1 1067.25   13.76
  -1  -8   1 1018.80    8.61
  -1  -8   1 1014.70    8.64
   1   8  -1 1075.76   13.62
  -1  -8   1 1060.68    8.28
  -1  -8   1 1008.66    9.10
  -1  -8   1 1036.98    8.53
  -1  -8   1 1020.58    8.67
   1   8  -1 1042.26    8.52
   1   8  -1 1086.96   14.85
  -1  -8   0   90.71    4.41
   1   8   0   93.66    3.70
  -1  -8   0   90.54    2.26
   1   8   0   95.00    4.11
  -1  -8   0   93.39    2.09
  -1  -8   0   86.77    1.99
  -1  -8   0   86.13    2.09
   1   8   0   94.67    1.98
  -1  -8   0   88.59    2.01
   1   8   0   89.30    3.65
   1   8   0   92.11    2.13
   1   8   0   98.94    4.19
  -1  -8   0   92.32    2.02
  -1  -8   0   90.39    2.23
  -1  -8  -1   40.91    1.48
  -1  -8  -1   42.15    1.35
  -1  -8  -1   41.80    1.52
   1   8   1   41.71    2.68
   1   8   1   39.71    2.39
  -1  -8  -1   35.95    1.37
   1   8   1   40.54    2.70
  -1  -8  -1   38.22    1.26
  -1  -8  -1   41.36    2.98
   1   8   1   42.66    2.51
   1   8   1   40.86    1.38
  -1  -8  -2   15.09    1.81
  -1  -8  -2   13.29    1.74
  -1  -8  -2   16.69    0.99
   1   8   2   14.82    1.65
  -1  -8  -2   13.87    0.90
   1   8   2   12.77    1.59
   1   8   2   14.30    1.48
   1   8   2   15.06    0.83
  -1  -8  -3  280.28    7.57
  -1  -8  -3  279.52    7.47
   1   8   3  273.85    6.57
  -1  -8  -3  286.80    4.04
   1   8   3  292.01    7.03
   1   8   3  278.33    6.25
   1   8   3  281.03    3.71
   1   8   3  286.19    3.68
   1   8   3  285.12    7.03
   1   8   3  281.33    3.71
  -1  -8  -3  271.91    3.98
   1   8   3  293.52    6.38
   1   8   4  185.75    2.94
   1   8   4  188.20    2.95
  -1  -8  -4  188.81    6.16
   1   8   4  186.80    5.33
  -1  -8  -4  185.54    3.20
   1   8   4  192.71    5.13
   1   8   4  188.65    5.09
  -1  -8  -4  178.21    5.86
   1   8   5    3.68    0.83
   1   8   5    3.03    0.45
   1   8   5    4.30    0.93
   1   8   5    3.46    0.47
   1   8   5    2.64    0.83
   1   8   5    3.51    0.54
   1   8   5    3.37    0.48
  -1  -8  -5    3.14    0.50
  -1  -8  -5    3.05    0.96
  -1  -8  -5    3.50    0.56
   1   8   6   81.66    3.31
  -1  -8  -6   86.18    2.14
   1   8   6   85.44    1.76
   1   8   6   87.17    2.00
   1   8   6   83.80    1.90
   1   8   6   83.59    1.98
   1   8   6   82.67    3.40
  -1  -8  -6   83.04    2.11
   1   8   7  127.55    2.19
   1   8   7  124.65    3.99
  -1  -8  -7  128.96    2.61
  -1  -8  -7  131.51    2.68
   1   8   7  131.42    2.52
   1   8   7  132.40    2.48
   1   8   7  128.83    2.45
  -1  -8  -8  140.07    2.68
   1   8   8  143.82    2.32
   1   8   8  139.94    2.41
  -1  -8  -8  144.83    2.83
   1   8   8  143.59    2.67
   1   8   8  140.54    2.48
   1   8   8  143.55    2.60
   1   8   9   49.75    1.42
  -1  -8  -9   52.71    1.68
  -1  -8  -9   48.31    1.50
   1   8   9   52.23    1.56
   1   8   9   49.34    1.45
   1   8   9   47.41    1.33
   1   8  10   47.85    1.48
   1   8  10   46.55    1.41
   1   8  10   46.72    1.35
   1   8  10   47.16    1.38
   1   8  10   46.20    1.30
  -1  -8 -10   49.90    1.58
   1   8  11   19.61    0.91
  -1  -8 -11   20.84    0.98
   1   8  11   19.64    0.86
  -1  -8 -11   19.05    0.93
   1   8  12    0.63    0.34
  -1  -8 -12    0.04    0.30
   1   8  12    0.06    0.40
  -1  -8 -12    0.04    0.39
   1   8  13    3.85    0.40
  -1  -8 -13    4.67    0.46
  -1  -8 -13    3.67    0.35
   1   8  13    4.11    0.45
  -1  -8 -13    4.41    0.46
   1   8  13    3.78    0.41
   1   8  14    0.00    0.31
  -1  -8 -14   -0.07    0.21
  -1  -8 -14   -0.23    0.31
   1   8  14    0.03    0.27
  -1  -8 -14   -0.03    0.25
   1   8  14   -0.05    0.23
   1   9  -8    0.96    0.26
  -1  -9   8    1.19    0.28
  -1  -9   8    1.14    0.33
   1   9  -7   -0.11    0.20
  -1  -9   7    0.55    0.31
  -1  -9   7    0.42    0.24
  -1  -9   7    0.70    0.31
  -1  -9   7    0.65    0.33
   1   9  -7    0.40    0.24
   1   9  -6   35.10    0.95
  -1  -9   6   42.79    1.12
   1   9  -6   36.81    1.05
  -1  -9   6   42.97    1.19
  -1  -9   6   41.48    1.18
  -1  -9   6   42.19    1.05
  -1  -9   6   43.01    1.06
   1   9  -6   34.64    1.05
   1   9  -5   41.02    1.25
  -1  -9   5   47.42    1.23
   1   9  -5   42.14    1.22
  -1  -9   5   48.15    1.30
  -1  -9   5   48.77    1.26
  -1  -9   5   46.35    1.32
  -1  -9   5   46.90    1.14
  -1  -9   4  117.87    2.23
  -1  -9   4  114.11    2.17
  -1  -9   4  115.15    2.08
   1   9  -4  101.64    2.02
  -1  -9   4  116.06    2.23
  -1  -9   4  116.75    2.08
  -1  -9   4  117.74    2.16
   1   9  -4  102.20    4.03
   1   9  -4  103.84    2.10
  -1  -9   3    3.30    0.49
   1   9  -3    1.90    0.80
  -1  -9   3    3.98    0.50
  -1  -9   3    2.93    0.51
   1   9  -3    3.72    0.47
  -1  -9   3    3.29    0.44
  -1  -9   3    3.08    0.49
   1   9  -3    2.87    0.47
  -1  -9   3    3.22    0.46
  -1  -9   3    3.88    0.57
  -1  -9   3    2.97    0.55
  -1  -9   2   15.19    0.86
  -1  -9   2   14.17    0.83
  -1  -9   2   15.41    0.85
  -1  -9   2   13.90    0.92
   1   9  -2   13.35    0.77
   1   9  -2   15.89    1.76
  -1  -9   2   17.34    0.92
  -1  -9   2   12.74    0.90
  -1  -9   2   13.97    0.84
   1   9  -2   13.05    0.82
  -1  -9   1    2.07    0.47
   1   9  -1    0.98    0.37
   1   9  -1    1.60    0.37
  -1  -9   1    1.50    0.49
   1   9  -1    1.90    0.65
  -1  -9   1    1.81    0.49
   1   9  -1    1.94    0.38
  -1  -9   1    2.12    0.46
  -1  -9   1    2.23    0.44
  -1  -9   1    1.28    0.40
   1   9  -1    1.98    0.94
  -1  -9   0  130.47    2.43
  -1  -9   0  137.10    2.63
   1   9   0  132.84    4.44
  -1  -9   0  131.15    2.77
   1   9   0  141.50    5.05
   1   9   0  144.33    2.57
  -1  -9   0  131.86    2.62
  -1  -9   0  140.63    2.51
   1   9   1  254.88    3.60
   1   9   1  249.93    6.13
   1   9   1  254.94    3.50
   1   9   1  264.30    6.90
  -1  -9  -1  251.94    3.91
   1   9   2  120.46    2.29
  -1  -9  -2  123.51    2.64
   1   9   2  115.56    4.10
   1   9   2  116.25    2.36
   1   9   2  119.95    4.15
   1   9   2  118.55    2.34
   1   9   2  123.35    4.68
  -1  -9  -3   12.29    0.80
   1   9   3   12.39    0.77
   1   9   3   11.41    1.33
   1   9   3   12.73    0.80
   1   9   3   12.04    1.39
  -1  -9  -3   10.96    0.85
  -1  -9  -4    1.13    0.39
   1   9   4    1.91    0.79
   1   9   4    1.38    0.38
   1   9   4    1.53    0.40
   1   9   4    1.32    0.62
   1   9   4    1.64    0.38
  -1  -9  -4    1.40    0.43
  -1  -9  -4    1.33    0.48
  -1  -9  -5  113.65    2.52
   1   9   5  111.92    3.95
   1   9   5  121.30    2.31
  -1  -9  -5  108.47    2.11
   1   9   5  116.47    2.34
   1   9   5  109.36    3.92
  -1  -9  -5  111.91    2.26
   1   9   5  113.12    2.33
   1   9   5  111.87    2.17
  -1  -9  -6   89.53    2.20
   1   9   6   96.39    1.89
   1   9   6   89.44    3.45
   1   9   6   99.15    2.16
  -1  -9  -6   98.07    2.32
   1   9   6  104.61    2.15
  -1  -9  -6   91.40    1.83
  -1  -9  -6   95.17    1.99
  -1  -9  -7   58.67    1.75
   1   9   7   58.92    1.51
  -1  -9  -7   61.34    1.79
  -1  -9  -7   56.14    1.43
   1   9   7   58.69    1.66
   1   9   7   58.00    1.57
   1   9   7   58.60    1.61
   1   9   7   57.67    1.42
   1   9   8    0.19    0.39
  -1  -9  -8    0.03    0.42
   1   9   8   -0.07    0.36
   1   9   8    0.55    0.34
  -1  -9  -8   -0.07    0.38
   1   9   8    0.23    0.41
  -1  -9  -8    0.95    0.43
   1   9   8    0.16    0.40
   1   9   9   71.34    1.61
   1   9   9   74.39    1.75
  -1  -9  -9   76.53    1.93
   1   9   9   73.50    1.67
  -1  -9  -9   70.12    1.66
   1   9   9   71.20    1.54
  -1  -9 -10   13.19    0.82
   1   9  10   12.80    0.69
   1   9  10   12.60    0.74
   1   9  10   12.29    0.72
   1   9  10   11.87    0.63
   1   9  10   12.73    0.78
  -1  -9 -10   11.87    0.72
  -1  -9 -11   -0.05    0.40
  -1  -9 -11    0.06    0.32
   1   9  11    0.13    0.31
  -1  -9 -11    0.12    0.34
   1   9  11    0.29    0.36
  -1  -9 -12    2.33    0.41
  -1  -9 -12    1.82    0.34
   1   9  12    2.65    0.35
  -1  -9 -12    2.35    0.38
   1   9  12    2.58    0.38
  -1  -9 -13    8.30    0.49
   1   9  13    7.91    0.46
  -1  -9 -13    8.69    0.50
  -1  -9 -13    7.07    0.37
   1   9  13    7.26    0.38
   1  10  -6   19.92    0.58
  -1 -10   6   28.31    0.63
  -1 -10   5    0.53    0.23
   1  10  -5    0.66    0.20
   1  10  -4    0.31    0.22
   1  10  -4    0.22    0.22
  -1 -10   4    0.14    0.23
  -1 -10   4    0.30    0.26
  -1 -10   3    1.79    0.35
   1  10  -3    1.20    0.27
   1  10  -3    1.55    0.30
  -1 -10   3    1.51    0.30
  -1 -10   3    1.95    0.33
  -1 -10   2   67.23    1.49
  -1 -10   2   61.73    1.39
   1  10  -2   57.17    1.43
  -1 -10   2   65.88    1.52
   1  10  -2   58.26    1.36
   1  10  -1    0.69    0.33
  -1 -10   1    0.69    0.33
   1  10  -1    0.58    0.32
   1  10  -1    0.70    0.29
  -1 -10   1    0.57    0.28
  -1 -10   1    0.63    0.40
  -1 -10   1    1.77    0.43
   1  10   0   69.07    1.56
  -1 -10   0   76.57    1.80
   1  10   0   69.82    1.66
  -1 -10   0   75.20    1.76
  -1 -10   0   67.95    1.69
   1  10   0   69.20    1.62
   1  10   0   74.46    3.41
   1  10   1  172.16    2.68
  -1 -10  -1  167.37    2.79
  -1 -10  -1  165.93    2.82
   1  10   1  169.08    2.59
  -1 -10  -1  166.07    2.71
   1  10   2  383.22    4.15
   1  10   2  392.30    7.34
  -1 -10  -2  390.01    4.37
   1  10   2  399.07    4.33
  -1 -10  -2  357.65    4.38
  -1 -10  -2  356.65    4.50
   1  10   3  247.65    3.17
  -1 -10  -3  233.69    3.40
   1  10   3  248.25    5.73
   1  10   3  253.79    3.45
  -1 -10  -3  238.63    3.62
   1  10   3  257.67    3.46
  -1 -10  -3  258.61    3.39
   1  10   3  256.01    3.33
   1  10   4    0.00    0.80
   1  10   4    1.81    0.41
  -1 -10  -4    1.96    0.45
  -1 -10  -4    1.95    0.41
   1  10   4    1.36    0.37
  -1 -10  -4    1.60    0.50
   1  10   4    1.10    0.44
  -1 -10  -4    2.18    0.57
  -1 -10  -5   52.78    1.53
   1  10   5   53.00    1.33
   1  10   5   54.46    1.45
  -1 -10  -5   52.59    1.65
  -1 -10  -5   53.11    1.36
   1  10   5   54.92    1.51
  -1 -10  -5   52.23    1.45
  -1 -10  -6    6.99    0.52
  -1 -10  -6    7.86    0.75
   1  10   6    8.32    0.58
  -1 -10  -6    7.18    0.58
   1  10   6    7.19    0.56
  -1 -10  -6    6.30    0.62
   1  10   6    7.15    0.63
   1  10   6    7.45    0.64
  -1 -10  -7   58.46    1.60
  -1 -10  -7   56.82    1.41
   1  10   7   62.22    1.36
  -1 -10  -7   59.89    1.66
   1  10   7   61.21    1.55
   1  10   7   60.81    1.42
  -1 -10  -7   58.26    1.32
   1  10   7   61.54    1.53
   1  10   8    0.72    0.35
  -1 -10  -8    0.48    0.33
   1  10   8    0.11    0.38
   1  10   8    0.91    0.30
   1  10   8    0.49    0.37
   1  10   9   38.23    1.04
  -1 -10  -9   36.01    1.08
   1  10   9   35.78    1.02
   1  10   9   37.02    1.11
   1  10   9   35.51    1.05
  -1 -10  -9   37.37    1.21
   1  10  10   58.45    1.18
  -1 -10 -10   57.90    1.29
  -1 -10 -10   58.98    1.39
   1  10  10   57.19    1.28
   1  10  10   56.67    1.19
   1  10  10   57.51    1.22
  -1 -10 -11  133.38    1.89
  -1 -10 -11  133.47    1.83
   1  10  11  131.02    1.78
  -1 -10 -12    4.40    0.36
  -1 -10 -12    5.15    0.39
   1  10  12    4.92    0.36
   1  11  -3    8.81    0.45
  -1 -11   3   10.30    0.49
  -1 -11   2   12.27    0.54
  -1 -11   2   12.30    0.56
   1  11  -1   10.76    0.48
   1  11  -1   10.94    0.51
  -1 -11   1   14.31    0.64
  -1 -11   1   13.24    0.60
   1  11  -1   12.68    0.60
  -1 -11   1   14.36    0.62
  -1 -11   0   10.46    0.61
  -1 -11   0   10.42    0.55
   1  11   0    9.48    0.55
   1  11   0    9.45    0.51
  -1 -11   0   10.63    0.61
  -1 -11   0   10.39    0.50
   1  11   0    8.15    0.45
  -1 -11  -1  126.09    2.02
   1  11   1  118.06    1.90
  -1 -11  -1  116.72    1.73
  -1 -11  -1  122.15    1.95
   1  11   1  110.85    1.75
  -1 -11  -1  119.78    1.76
   1  11   1  118.01    1.93
  -1 -11  -2  123.39    2.10
  -1 -11  -2  122.33    1.72
   1  11   2  129.23    1.99
  -1 -11  -2  133.21    2.06
   1  11   2  129.13    1.91
   1  11   2  128.13    2.05
  -1 -11  -2  130.87    2.10
   1  11   3    0.06    0.31
   1  11   3    0.28    0.28
   1  11   3    0.38    0.27
  -1 -11  -3    0.94    0.39
  -1 -11  -3    0.75    0.35
  -1 -11  -3    1.08    0.39
   1  11   4   47.26    1.20
  -1 -11  -4   43.94    1.12
   1  11   4   44.29    1.11
  -1 -11  -4   45.43    1.32
  -1 -11  -4   46.39    1.21
   1  11   4   45.47    1.20
   1  11   5   33.21    1.03
   1  11   5   32.30    0.91
  -1 -11  -5   29.60    0.91
  -1 -11  -5   31.55    0.90
   1  11   5   33.98    1.01
  -1 -11  -5   33.13    0.98
   1  11   6    9.32    0.57
  -1 -11  -6    7.60    0.53
   1  11   6    8.92    0.52
   1  11   6    9.08    0.56
  -1 -11  -6    8.58    0.51
   1  11   6    9.29    0.56
   1  11   7   20.30    0.75
   1  11   7   19.42    0.69
   1  11   7   18.81    0.71
   1  11   8   11.03    0.54
   1  11   8   11.92    0.57
   1  11   8   12.02    0.56
  -1 -11  -8   10.96    0.60
   1  11   8   12.04    0.54
   1  11   9    0.17    0.27
   1  11   9    0.36    0.28
  -1 -11  -9    0.28    0.29
   1  11   9    0.12    0.29
   1  11   9    0.25    0.28
   1  11  10   11.04    0.45
  -1 -11 -10   10.33    0.50
  -1 -12  -1   47.30    0.84
   1  12   1   40.86    0.78
   1  12   2    0.36    0.23
  -1 -12  -2    0.50    0.28
   1  12   2    0.60    0.26
   1  12   3    4.22    0.32
  -1 -12  -3    4.22    0.36
   1  12   3    4.42    0.35
   1  12   4   45.36    0.81
  -1 -12  -4   45.22    0.86
   1  12   4   44.35    0.85
   1  12   5   60.16    0.97
  -1 -12  -5   60.25    0.97
  -1 -12  -6    0.40    0.27
   1  12   6    0.61    0.26
   1  12   6    0.54    0.23
  -2  11   8   57.21    0.91
   2 -11  -7   16.95    0.51
  -2  11   6   62.15    0.98
   2 -11  -6   62.38    0.97
   2 -11  -6   63.58    0.98
   2 -11  -6   65.18    0.91
   2 -11  -5    3.63    0.33
  -2  11   5    3.09    0.31
   2 -11  -5    3.61    0.35
   2 -11  -5    3.58    0.37
   2 -11  -4   26.03    0.76
   2 -11  -4   27.43    0.64
  -2  11   4   27.55    0.62
   2 -11  -3   22.10    0.55
  -2  11   3   23.59    0.60
   2 -11  -3   26.05    0.71
   2 -11  -3   25.12    0.78
   2 -11  -2  114.11    1.60
   2 -11  -2  105.13    1.42
   2 -11  -1   12.76    0.52
   2 -11  -1   14.05    0.56
   2 -11   0   -0.48    0.27
   2 -11   0    0.24    0.29
   2 -11   1   14.01    0.51
  -2  10  10    0.09    0.26
   2 -10 -10    0.06    0.29
  -2  10   9    1.75    0.31
   2 -10  -9    0.95    0.34
  -2  10   8   14.50    0.63
   2 -10  -8   11.65    0.47
  -2  10   8   14.97    0.51
   2 -10  -8   11.24    0.60
  -2  10   8   14.79    0.57
   2 -10  -7    8.63    0.47
  -2  10   7    8.13    0.54
   2 -10  -7    8.26    0.48
  -2  10   7    8.83    0.45
   2 -10  -7    7.28    0.42
  -2  10   7    8.80    0.49
   2 -10  -6   34.61    0.88
   2 -10  -6   32.50    0.95
  -2  10   6   36.71    1.02
  -2  10   6   35.27    0.89
   2 -10  -6   33.34    0.90
  -2  10   6   36.72    0.94
   2 -10  -5    7.83    0.54
   2 -10  -5    8.21    0.49
   2 -10  -5    7.66    0.56
  -2  10   5    8.86    0.51
  -2  10   5    8.80    0.56
  -2  10   5    8.26    0.52
   2 -10  -4    0.69    0.30
   2 -10  -4    1.03    0.41
   2 -10  -4    0.96    0.42
  -2  10   4    0.99    0.34
   2 -10  -4    1.65    0.34
   2 -10  -3   12.89    0.62
   2 -10  -3   12.29    0.74
  -2  10   3   12.45    0.66
   2 -10  -3   12.66    0.66
   2 -10  -2    0.88    0.38
   2 -10  -2   -0.47    0.34
   2 -10  -2   -0.11    0.45
  -2  10   2   -0.09    0.32
   2 -10  -2    0.94    0.36
   2 -10  -1    0.52    0.39
   2 -10  -1    0.63    0.41
   2 -10  -1   -0.37    0.32
   2 -10  -1    1.01    0.33
   2 -10   0   93.38    1.72
   2 -10   0   90.64    1.54
   2 -10   1   10.69    0.55
   2 -10   1   11.18    0.63
   2 -10   1   11.99    0.67
   2 -10   1   11.64    0.60
   2 -10   2    9.44    0.55
   2 -10   2    8.67    0.44
   2 -10   2   10.19    0.58
   2 -10   3   -0.28    0.30
   2 -10   3   -0.17    0.32
   2 -10   4   22.01    0.64
   2 -10   4   22.83    0.69
  -2   9  12   60.56    0.98
   2  -9 -12   61.58    0.87
  -2   9  11    0.50    0.31
   2  -9 -11    0.39    0.35
   2  -9 -11    0.24    0.30
   2  -9 -11    0.34    0.22
   2  -9 -11    0.37    0.30
  -2   9  10   31.67    0.93
   2  -9 -10   30.22    1.03
   2  -9 -10   29.62    0.91
   2  -9 -10   24.97    0.77
  -2   9  10   24.82    0.87
   2  -9 -10   27.54    0.92
   2  -9  -9    5.60    0.55
  -2   9   9    5.60    0.51
   2  -9  -9    6.11    0.60
  -2   9   9    5.33    0.40
  -2   9   9    5.58    0.47
  -2   9   9    6.28    0.53
   2  -9  -9    4.40    0.48
   2  -9  -8   14.27    0.58
  -2   9   8   16.87    0.80
   2  -9  -8   14.53    0.83
   2  -9  -8   17.80    0.97
   2  -9  -8   12.95    0.72
  -2   9   8   15.26    0.77
  -2   9   8   15.61    0.72
  -2   9   8   15.50    0.66
  -2   9   7  607.75    5.36
   2  -9  -7  575.09    4.84
   2  -9  -7  526.93    5.48
  -2   9   7  608.93    5.20
   2  -9  -7  566.99    4.95
  -2   9   7  604.16    4.99
   2  -9  -7  576.44    5.97
   2  -9  -7  534.57    5.19
   2  -9  -6  114.64    2.42
  -2   9   6  129.48    2.17
  -2   9   6  130.55    2.03
   2  -9  -6  118.47    2.27
  -2   9   6  128.75    2.10
   2  -9  -6  120.30    1.97
   2  -9  -6  121.16    2.08
   2  -9  -5    2.76    0.50
   2  -9  -5    1.98    0.44
  -2   9   5    2.16    0.46
   2  -9  -5    2.70    0.40
   2  -9  -5    2.24    0.48
   2  -9  -4    3.75    0.49
  -2   9   4    3.58    0.92
  -2   9   4    3.52    0.50
   2  -9  -4    3.24    0.55
   2  -9  -3  183.46    2.61
   2  -9  -3  187.11    2.94
  -2   9   3  178.28    5.09
   2  -9  -3  179.43    2.68
   2  -9  -2   52.92    1.51
   2  -9  -2   57.16    1.36
   2  -9  -2   51.89    1.49
  -2   9   2   53.19    2.80
   2  -9  -2   54.41    1.39
   2  -9  -2   54.59    1.58
   2  -9  -1   22.77    1.04
  -2   9   1   22.28    1.87
   2  -9  -1   22.24    0.92
   2  -9  -1   21.56    1.04
   2  -9  -1   21.46    0.90
   2  -9  -1   22.59    1.03
   2  -9   0   11.28    0.63
   2  -9   0   12.16    0.80
   2  -9   0   13.04    0.82
   2  -9   0   13.37    0.74
   2  -9   0   12.67    0.75
  -2   9   0   12.32    1.39
   2  -9   0   12.01    0.80
   2  -9   1    7.62    0.50
   2  -9   1    8.00    0.66
   2  -9   1    8.76    0.68
   2  -9   1    9.03    0.68
   2  -9   1    8.95    0.72
   2  -9   2   84.32    1.73
   2  -9   2   88.07    1.80
   2  -9   2   84.75    1.68
   2  -9   2   83.33    1.80
   2  -9   3   31.21    1.06
   2  -9   3   32.69    1.11
   2  -9   3   29.77    0.98
   2  -9   3   30.54    1.04
   2  -9   4    0.78    0.37
   2  -9   4    1.16    0.37
   2  -9   4    0.58    0.40
   2  -9   4    1.12    0.32
   2  -9   4    1.22    0.34
   2  -9   5   37.65    0.95
   2  -9   5   37.35    1.02
   2  -9   5   36.26    0.99
   2  -9   5   33.94    0.94
   2  -9   5   37.99    1.04
   2  -9   6   94.46    1.43
   2  -9   6   95.46    1.47
   2  -9   7   64.21    0.96
   2  -8 -13   85.62    1.36
  -2   8  13   72.27    1.10
   2  -8 -13   80.36    1.29
   2  -8 -13   68.63    1.06
  -2   8  12    7.54    0.51
   2  -8 -12    7.44    0.52
   2  -8 -12    8.15    0.57
   2  -8 -12    7.92    0.44
  -2   8  12    7.78    0.52
   2  -8 -12    6.93    0.45
   2  -8 -12    8.38    0.58
  -2   8  11   24.59    1.22
  -2   8  11   23.28    0.87
   2  -8 -11   25.38    1.00
   2  -8 -11   22.73    0.83
   2  -8 -11   24.19    0.97
   2  -8 -11   22.49    0.88
  -2   8  10    2.02    0.45
   2  -8 -10    1.55    0.40
   2  -8 -10    2.89    0.57
  -2   8  10    1.91    0.44
   2  -8 -10    1.82    0.36
   2  -8 -10    1.72    0.44
   2  -8 -10    1.49    0.43
   2  -8  -9    1.70    0.41
   2  -8  -9    1.90    0.47
  -2   8   9    2.07    0.46
  -2   8   9    0.89    0.29
   2  -8  -9    2.24    0.58
   2  -8  -9    2.09    0.54
  -2   8   9    1.60    0.38
  -2   8   9    1.80    0.46
   2  -8  -8    7.81    0.63
   2  -8  -8    9.16    0.82
  -2   8   8    9.27    0.58
   2  -8  -8    6.95    0.50
   2  -8  -8    8.45    0.78
   2  -8  -8    7.98    0.72
  -2   8   8    8.56    0.63
  -2   8   8    8.66    0.68
  -2   8   7 1024.91    7.93
   2  -8  -7  912.54    8.18
   2  -8  -7  955.43    8.45
  -2   8   7 1011.94    7.57
  -2   8   7  951.46   12.94
   2  -8  -7  935.12    7.28
   2  -8  -7 1008.07    8.92
  -2   8   7  994.42    7.78
   2  -8  -6  153.89    2.94
   2  -8  -6  142.14    2.72
  -2   8   6  148.39    4.78
   2  -8  -6  149.63    2.40
  -2   8   6  152.18    2.50
   2  -8  -6  141.28    2.26
   2  -8  -6  151.25    2.67
   2  -8  -5  290.84    3.97
   2  -8  -5  291.62    4.20
  -2   8   5  300.66    3.64
  -2   8   5  297.61    6.82
  -2   8   5  303.43    6.83
   2  -8  -5  299.57    3.46
   2  -8  -4  497.50    5.39
  -2   8   4  518.83    5.06
  -2   8   4  516.92    9.13
   2  -8  -4  521.68    5.42
   2  -8  -4  500.36    5.71
  -2   8   4  515.74    9.07
   2  -8  -4  517.10    5.03
   2  -8  -3  449.56    4.78
  -2   8   3  458.90    8.63
   2  -8  -3  452.34    5.29
  -2   8   3  483.68    8.88
  -2   8   3  473.74    8.61
   2  -8  -3  475.67    5.10
   2  -8  -2   80.17    1.93
   2  -8  -2   79.80    1.85
   2  -8  -2   72.53    1.66
  -2   8   2   73.85    3.42
   2  -8  -2   78.53    1.86
  -2   8   2   76.09    3.40
  -2   8   2   80.14    3.52
   2  -8  -2   79.31    1.99
   2  -8  -1    0.46    0.35
   2  -8  -1    0.28    0.36
  -2   8   1    0.07    0.80
   2  -8  -1    1.09    0.42
  -2   8   1    1.21    0.74
   2  -8  -1    0.50    0.44
  -2   8   1   -0.31    0.75
   2  -8  -1    0.90    0.43
   2  -8  -1    1.08    0.48
   2  -8   0   48.43    1.42
   2  -8   0   46.99    1.48
   2  -8   0   48.00    1.46
   2  -8   0   50.06    1.48
  -2   8   0   48.78    2.82
   2  -8   0   48.09    1.37
   2  -8   0   46.33    1.39
   2  -8   0   46.30    1.46
   2  -8   1  147.36    2.41
   2  -8   1  144.33    2.51
   2  -8   1  145.63    2.58
   2  -8   1  134.81    2.15
   2  -8   1  150.80    2.58
   2  -8   1  139.68    2.56
   2  -8   1  162.66    2.75
   2  -8   1  149.98    2.57
   2  -8   1  146.61    2.45
  -2   8  -1  149.71    4.82
   2  -8   1  153.57    2.65
   2  -8   2   59.02    1.54
   2  -8   2   52.93    1.55
  -2   8  -2   49.41    2.79
   2  -8   2   56.71    1.61
   2  -8   2   47.98    1.19
   2  -8   2   52.64    1.51
   2  -8   2   52.91    1.49
   2  -8   2   50.24    1.44
   2  -8   2   50.91    1.48
   2  -8   2   49.42    1.51
   2  -8   3   84.33    1.95
   2  -8   3   80.10    1.75
   2  -8   3   76.39    1.84
   2  -8   3   76.82    1.78
   2  -8   3   78.31    1.72
   2  -8   3   80.48    1.90
   2  -8   3   74.45    1.79
   2  -8   4  145.16    2.44
   2  -8   4  145.43    2.50
   2  -8   4  144.67    2.47
   2  -8   4  146.43    2.58
   2  -8   5    1.19    0.38
   2  -8   5    1.33    0.43
   2  -8   5    0.97    0.35
   2  -8   5    0.85    0.38
   2  -8   5    1.00    0.43
   2  -8   6   -0.10    0.29
   2  -8   6    0.04    0.33
   2  -8   6   -0.37    0.39
   2  -8   6   -0.08    0.32
   2  -8   6    0.04    0.34
   2  -8   6    0.26    0.36
   2  -8   7   72.37    1.38
   2  -8   7   68.42    1.44
   2  -8   7   70.69    1.45
   2  -8   7   71.68    1.47
   2  -8   7   66.50    1.35
   2  -8   7   73.43    1.40
   2  -8   8    1.03    0.29
   2  -8   8    1.22    0.30
   2  -8   8    1.13    0.31
   2  -8   8    1.15    0.32
   2  -8   8    1.23    0.32
   2  -8   9   15.78    0.50
   2  -8   9   15.73    0.50
  -2   7  14   -0.10    0.20
   2  -7 -14   -0.29    0.30
   2  -7 -14   -0.47    0.24
   2  -7 -14    0.01    0.27
  -2   7  14   -0.03    0.21
   2  -7 -14   -0.11    0.30
  -2   7  13    5.16    0.43
   2  -7 -13    6.16    0.51
   2  -7 -13    6.16    0.47
   2  -7 -13    5.20    0.34
   2  -7 -13    5.58    0.47
   2  -7 -13    6.11    0.52
  -2   7  13    5.74    0.49
   2  -7 -12  202.83    2.82
  -2   7  12  192.23    2.61
   2  -7 -12  205.52    2.76
  -2   7  12  190.57    2.65
   2  -7 -12  197.08    2.30
   2  -7 -12  196.10    2.72
  -2   7  12  181.70    2.34
   2  -7 -12  212.56    2.90
  -2   7  11  331.31    3.58
  -2   7  11  327.95    3.78
   2  -7 -11  339.25    4.07
   2  -7 -11  332.60    3.54
  -2   7  10   -0.25    0.43
  -2   7  10    0.44    0.46
   2  -7 -10    1.55    0.55
   2  -7 -10   -0.29    0.49
   2  -7 -10    0.53    0.40
   2  -7 -10    0.36    0.42
   2  -7 -10   -0.28    0.48
  -2   7  10    0.05    0.34
  -2   7   9    1.10    0.45
   2  -7  -9    2.57    0.47
  -2   7   9    0.65    0.61
  -2   7   9    1.02    0.46
   2  -7  -9    2.19    0.55
   2  -7  -9    2.03    0.52
  -2   7   9   -0.09    0.58
  -2   7   9    1.44    0.38
  -2   7   9    1.32    0.34
   2  -7  -9    1.63    0.50
  -2   7   8    5.97    0.62
   2  -7  -8    6.74    0.72
   2  -7  -8    6.12    0.69
  -2   7   8    5.96    0.57
   2  -7  -8    6.38    0.62
  -2   7   8    6.08    0.50
   2  -7  -8    6.01    0.67
  -2   7   7    4.50    0.57
   2  -7  -7    3.69    0.44
  -2   7   7    5.71    1.06
  -2   7   7    4.92    0.52
  -2   7   7    4.92    0.47
   2  -7  -7    5.12    0.64
   2  -7  -7    4.99    0.62
   2  -7  -7    5.24    0.66
  -2   7   6 1239.65    9.18
   2  -7  -6 1232.34   10.24
   2  -7  -6 1184.65    9.89
  -2   7   6 1236.92   14.77
   2  -7  -6 1180.38    9.78
   2  -7  -6 1201.73    9.55
  -2   7   5   -0.10    0.41
  -2   7   5    1.32    0.35
  -2   7   5    1.25    0.87
   2  -7  -5    0.17    0.56
   2  -7  -5    0.18    0.40
   2  -7  -5    1.04    0.32
   2  -7  -5    0.47    0.40
  -2   7   5    0.76    0.73
   2  -7  -5    0.05    0.40
   2  -7  -4   22.85    2.08
   2  -7  -4   25.36    1.12
   2  -7  -4   23.50    0.94
  -2   7   4   26.43    2.05
  -2   7   4   23.97    1.95
  -2   7   4   26.47    1.95
   2  -7  -4   24.31    1.15
   2  -7  -4   27.20    1.10
   2  -7  -4   25.38    1.06
  -2   7   3   40.99    2.40
   2  -7  -3   40.19    1.14
   2  -7  -3   42.11    1.37
  -2   7   3   43.18    2.52
   2  -7  -3   40.13    2.70
   2  -7  -3   43.55    1.48
  -2   7   3   42.62    2.48
   2  -7  -3   43.28    1.39
   2  -7  -3   42.82    1.34
  -2   7   3   40.29    2.51
   2  -7  -3   40.00    1.24
   2  -7  -2    0.23    0.36
  -2   7   2    0.87    0.60
   2  -7  -2    0.28    0.35
  -2   7   2    0.02    0.64
  -2   7   2   -0.25    0.71
   2  -7  -2    0.63    0.33
   2  -7  -2    0.38    0.35
  -2   7   2    0.77    0.67
   2  -7  -2    0.48    0.53
  -2   7   1  644.09   10.31
   2  -7  -1  599.03   10.62
   2  -7  -1  651.95    6.03
   2  -7  -1  624.52    5.74
  -2   7   1  658.14   10.10
   2  -7  -1  658.91    6.32
   2  -7  -1  672.11    6.18
   2  -7  -1  637.26    5.86
   2  -7  -1  655.43    6.18
  -2   7   1  692.47   10.59
   2  -7  -1  636.64    5.98
  -2   7   0   24.56    1.92
  -2   7   0   26.19    2.00
   2  -7   0   20.56    1.99
  -2   7   0   26.99    2.03
   2  -7   0   24.89    1.02
   2  -7   0   27.06    1.00
   2  -7   0   24.16    1.04
   2  -7   0   25.08    1.05
   2  -7   0   26.61    1.09
  -2   7   0   26.43    2.03
   2  -7   0   27.39    1.15
   2  -7   0   25.94    1.07
   2  -7   0   26.18    1.07
  -2   7  -1   16.11    1.64
   2  -7   1   21.17    0.98
   2  -7   1   16.30    1.81
  -2   7  -1   18.78    1.76
   2  -7   1   19.63    0.93
  -2   7  -1   19.15    1.74
   2  -7   1   19.00    0.91
   2  -7   1   20.61    1.00
   2  -7   1   19.26    0.93
   2  -7   1   18.83    0.88
   2  -7   1   18.72    0.86
   2  -7   1   19.44    0.90
   2  -7   1   19.31    0.95
   2  -7   2    0.21    0.34
   2  -7   2    0.52    0.36
   2  -7   2   -0.25    0.39
   2  -7   2    0.38    0.38
   2  -7   2    0.38    0.34
  -2   7  -2    1.13    0.63
   2  -7   2    0.43    0.39
  -2   7  -2    0.19    0.50
   2  -7   2    0.38    0.29
   2  -7   2    0.31    0.33
   2  -7   2    0.67    0.35
  -2   7  -2    0.33    0.63
   2  -7   3  131.88    2.30
   2  -7   3  124.83    2.41
   2  -7   3  120.32    1.94
  -2   7  -3  114.61    4.15
  -2   7  -3  129.84    4.70
   2  -7   3  129.29    2.29
   2  -7   3  128.80    2.30
   2  -7   3  122.95    2.38
   2  -7   3  135.01    2.54
   2  -7   3  131.25    2.42
   2  -7   3  130.78    2.51
   2  -7   4  245.61    3.47
   2  -7   4  244.28    3.43
   2  -7   4  227.74    3.07
   2  -7   4  222.15    3.34
   2  -7   4  231.39    2.97
   2  -7   4  235.35    3.45
   2  -7   4  225.83    3.22
   2  -7   5    2.60    0.45
   2  -7   5    2.55    0.52
   2  -7   5    3.03    0.55
  -2   7  -5    3.21    0.91
   2  -7   5    2.97    0.52
   2  -7   6   -0.31    0.36
  -2   7  -6   -0.11    0.53
   2  -7   6   -0.23    0.43
   2  -7   6    0.35    0.38
   2  -7   7   22.44    0.95
   2  -7   7   22.05    1.00
   2  -7   8   81.90    1.60
   2  -7   8   77.43    1.48
   2  -7   8   78.47    1.67
   2  -7   8   75.88    1.65
   2  -7   9    6.88    0.41
   2  -7   9    6.72    0.51
   2  -7   9    7.76    0.47
   2  -7   9    6.65    0.52
   2  -7   9    7.63    0.52
   2  -7  10    7.35    0.45
   2  -7  10    6.88    0.44
   2  -7  10    7.09    0.46
   2  -6 -15   27.87    0.69
   2  -6 -15   26.08    0.66
   2  -6 -15   28.17    0.71
   2  -6 -14  119.00    1.81
  -2   6  14  113.88    1.66
   2  -6 -14  116.84    1.71
   2  -6 -14  120.18    1.84
   2  -6 -13   14.71    0.78
   2  -6 -13   14.25    0.77
   2  -6 -13   13.81    0.67
  -2   6  13   12.51    0.66
   2  -6 -13   14.64    0.76
  -2   6  13   12.76    0.72
  -2   6  12    2.63    0.47
   2  -6 -12    2.57    0.52
  -2   6  12    2.25    0.51
   2  -6 -12    2.54    0.47
  -2   6  12    1.50    0.59
   2  -6 -12    2.40    0.39
   2  -6 -12    2.69    0.53
  -2   6  11  310.96    3.59
   2  -6 -11  309.86    3.93
   2  -6 -11  301.04    3.43
  -2   6  11  298.20    3.76
   2  -6 -11  300.10    4.02
   2  -6 -11  311.02    4.05
  -2   6  10  312.48    3.89
   2  -6 -10  327.28    4.18
  -2   6  10  308.71    3.84
  -2   6  10  292.28    3.62
   2  -6 -10  319.05    4.18
   2  -6 -10  309.38    3.63
  -2   6  10  311.98    3.88
   2  -6 -10  311.24    4.14
   2  -6 -10  326.08    4.28
  -2   6   9    5.75    0.62
   2  -6  -9    7.76    0.72
   2  -6  -9    7.46    0.72
  -2   6   9    5.70    1.06
   2  -6  -9    7.14    0.69
  -2   6   9    7.02    0.54
   2  -6  -9    7.28    0.71
  -2   6   9    6.96    0.68
  -2   6   9    6.85    0.61
  -2   6   8    5.23    0.57
   2  -6  -8    6.09    0.66
   2  -6  -8    6.30    0.66
   2  -6  -8    6.46    0.68
   2  -6  -8    5.91    0.62
  -2   6   8    6.22    0.57
  -2   6   8    5.39    0.60
   2  -6  -7    3.03    0.48
   2  -6  -7    2.24    0.87
   2  -6  -7    2.99    0.53
  -2   6   7    1.32    0.76
  -2   6   7    1.99    0.45
   2  -6  -7    2.11    0.46
  -2   6   7    1.82    0.36
   2  -6  -7    2.33    0.47
  -2   6   6  217.07    2.87
   2  -6  -6  218.66    3.30
  -2   6   6  212.31    5.40
   2  -6  -6  211.34    3.26
   2  -6  -6  216.35    3.40
   2  -6  -5  289.68    6.92
  -2   6   5  306.24    3.42
  -2   6   5  306.77    6.30
  -2   6   5  306.35    3.44
  -2   6   5  307.94    6.39
  -2   6   4   28.56    1.87
   2  -6  -4   25.92    2.03
  -2   6   4   26.17    1.85
  -2   6   4   27.10    1.92
  -2   6   4   26.21    1.86
  -2   6   3  119.97    3.96
   2  -6  -3  118.76    4.16
  -2   6   3  120.23    3.82
  -2   6   3  119.80    3.80
  -2   6   3  116.76    3.69
   2  -6  -2  131.54    4.31
  -2   6   2  133.40    3.96
  -2   6   2  124.41    3.85
  -2   6   2  134.52    4.12
   2  -6  -1  804.46   11.31
  -2   6   1  839.57   10.97
  -2   6   1  885.45   11.22
  -2   6   1  854.79   11.12
  -2   6   1  828.43   10.70
  -2   6   0   -0.90    0.53
   2  -6   0    0.93    0.55
   2  -6   0    0.86    0.61
  -2   6   0   -0.04    0.56
  -2   6   0    0.16    0.45
  -2   6   0    0.75    0.48
  -2   6  -1   73.59    3.12
   2  -6   1   56.20    2.87
   2  -6   1   67.83    3.07
  -2   6  -1   62.73    2.79
  -2   6  -1   63.35    2.92
   2  -6   2    4.82    1.05
  -2   6  -2    2.84    0.73
  -2   6  -2    5.76    0.96
   2  -6   2    5.12    0.52
   2  -6   2    4.93    0.46
  -2   6  -2    4.69    0.85
  -2   6  -2    4.31    0.81
   2  -6   2    5.05    0.54
   2  -6   3    2.63    0.40
   2  -6   3    0.25    0.36
   2  -6   3    1.56    0.40
   2  -6   3    3.13    0.48
   2  -6   3    2.11    0.36
  -2   6  -3    2.65    0.83
  -2   6  -3    1.19    0.58
   2  -6   3    1.24    0.80
   2  -6   4  185.68    5.85
   2  -6   4  180.27    2.65
   2  -6   4  186.03    2.93
  -2   6  -4  178.04    5.17
   2  -6   4  188.63    3.01
  -2   6  -4  174.82    5.27
   2  -6   4  187.88    2.78
   2  -6   4  179.51    2.61
   2  -6   5  533.50    5.55
  -2   6  -5  504.34    9.32
   2  -6   5  548.44    5.51
   2  -6   5  507.73    5.01
   2  -6   6  359.36    4.38
  -2   6  -6  332.97    7.70
   2  -6   6  373.18    4.36
   2  -6   6  331.08    3.83
  -2   6  -7   65.20    3.41
  -2   6  -7   65.17    3.34
  -2   6  -7   61.75    3.30
   2  -6   7   74.15    1.84
   2  -6   7   72.57    1.82
   2  -6   8    0.98    0.39
  -2   6  -8    1.68    0.68
   2  -6   9    0.49    0.31
   2  -6   9    0.88    0.35
   2  -6  10    4.03    0.46
   2  -6  10    3.95    0.40
   2  -6  11    0.50    0.28
  -2   5  15    1.87    0.29
   2  -5 -15    1.95    0.30
  -2   5  15    2.17    0.37
   2  -5 -15    2.11    0.34
  -2   5  14   18.15    0.75
   2  -5 -14   18.92    0.72
   2  -5 -14   18.46    0.77
   2  -5 -14   20.57    0.84
  -2   5  14   17.62    0.68
  -2   5  13   79.90    1.71
  -2   5  13   78.41    1.65
   2  -5 -13   80.71    1.71
  -2   5  12    1.38    0.51
   2  -5 -12    1.59    0.40
   2  -5 -12    0.92    0.32
  -2   5  12    1.01    0.41
   2  -5 -12    1.43    0.50
  -2   5  12    1.36    0.38
   2  -5 -12    1.83    0.48
  -2   5  11    5.37    0.64
   2  -5 -11    4.96    0.57
  -2   5  11   23.00    1.28
  -2   5  11   18.31    1.10
   2  -5 -11    4.40    0.49
   2  -5 -11    4.42    0.62
   2  -5 -10  629.35    6.19
   2  -5 -10  643.16    6.21
  -2   5  10  607.29    5.88
   2  -5 -10  613.32    5.57
   2  -5 -10  640.66    6.33
  -2   5  10  635.27    6.07
  -2   5  10  620.69    6.00
  -2   5  10  612.32    5.68
   2  -5  -9   47.11    2.92
   2  -5  -9   48.49    1.53
  -2   5   9   43.18    2.32
   2  -5  -9   47.25    1.52
  -2   5   9   40.87    2.47
  -2   5   9   42.12    1.30
  -2   5   9   50.33    1.47
  -2   5   9   48.86    1.43
   2  -5  -9   48.34    1.55
  -2   5   9   47.34    1.39
   2  -5  -8  816.51    7.33
   2  -5  -8  818.04    7.39
   2  -5  -8  786.98   12.04
  -2   5   8  821.43    6.89
  -2   5   8  761.07   10.32
  -2   5   8  808.91    6.80
   2  -5  -8  812.56    7.35
  -2   5   8  773.19    6.64
   2  -5  -7   48.21    2.75
  -2   5   7   49.50    1.30
  -2   5   6  342.56    3.59
  -2   5   6  334.57    6.46
   2  -5  -6  331.50    7.05
  -2   5   5  155.87    4.08
  -2   5   5  152.18    2.13
  -2   5   5  154.64    4.14
  -2   5   5  150.37    2.14
   2  -5  -5  154.42    4.56
   2  -5  -4  254.30    5.71
  -2   5   4  260.69    5.40
  -2   5   4  262.10    5.29
  -2   5   4  258.17    5.18
  -2   5   4  261.49    5.28
   2  -5  -3   13.52    1.36
  -2   5   3   16.50    1.36
  -2   5   3   14.46    1.22
  -2   5   3   14.70    1.25
  -2   5   3   14.95    1.33
  -2   5   2   40.86    2.07
   2  -5  -2   41.83    2.20
  -2   5   2   40.65    1.99
  -2   5   2   43.21    2.02
  -2   5   2   46.00    2.12
  -2   5   1  135.04    3.69
  -2   5   1  134.55    3.67
   2  -5  -1  138.85    3.56
  -2   5   1  136.08    3.70
   2  -5  -1  133.29    3.51
   2  -5  -1  129.63    3.76
  -2   5   0   34.67    1.86
   2  -5   0   35.25    1.96
   2  -5   0   36.44    1.90
  -2   5   0   33.65    1.87
  -2   5   0   35.11    1.92
   2  -5   0   35.95    1.91
  -2   5  -1  467.99    7.06
   2  -5   1  493.87    7.70
   2  -5   1  444.53    7.36
  -2   5  -1  455.26    7.35
   2  -5   1  483.56    7.66
  -2   5  -1  441.51    6.78
   2  -5   2  171.27    4.57
   2  -5   2  174.33    4.75
  -2   5  -2  165.84    4.37
   2  -5   2  175.16    4.75
  -2   5  -2  169.09    4.18
   2  -5   3   -0.12    0.67
  -2   5  -3    0.42    0.46
  -2   5  -3   -1.17    0.54
   2  -5   4   29.31    2.32
   2  -5   4   34.67    2.39
  -2   5  -4   26.55    1.99
  -2   5  -4   30.52    2.07
   2  -5   5  523.19    9.68
  -2   5  -5  466.49    8.61
  -2   5  -5  494.19    8.91
   2  -5   5  494.13    5.20
   2  -5   5  470.27    4.52
   2  -5   5  510.80    5.14
   2  -5   5  476.94    4.71
   2  -5   6  811.27    6.95
   2  -5   6  877.55   13.33
  -2   5  -6  802.57   12.23
   2  -5   6  826.26    7.42
  -2   5  -6  842.11   11.77
  -2   5  -6  914.71   12.92
   2  -5   6  842.48    7.46
   2  -5   6  822.93    6.82
   2  -5   6  861.52    7.34
   2  -5   7    0.41    0.33
  -2   5  -7   -0.44    0.73
   2  -5   7   -0.11    0.41
  -2   5  -7   -0.19    0.62
  -2   5  -7    0.67    0.78
   2  -5   7   -0.15    0.38
   2  -5   7    0.19    0.40
   2  -5   8  641.50    6.11
  -2   5  -8  641.85   10.66
   2  -5   8  665.90    6.37
   2  -5   8  657.92    6.17
   2  -5   9   24.86    1.04
  -2   5  -9   26.67    2.11
  -2   5  -9   21.86    2.14
   2  -5   9   26.03    1.08
   2  -5   9   23.81    1.02
   2  -5  10   31.13    1.09
  -2   5 -10   30.27    1.05
   2  -5  10   32.83    1.10
   2  -5  11   13.34    0.68
   2  -5  11   13.79    0.63
   2  -5  12   38.38    0.89
   2  -4 -16    0.81    0.25
  -2   4  16    0.88    0.27
  -2   4  15    1.87    0.33
   2  -4 -15    1.78    0.27
   2  -4 -15    2.34    0.34
  -2   4  15    2.28    0.26
  -2   4  15    1.90    0.38
  -2   4  14  272.17    3.17
  -2   4  14  258.70    2.92
   2  -4 -14  270.91    3.09
   2  -4 -14  259.11    2.87
  -2   4  13   49.60    1.40
   2  -4 -13   50.82    1.49
   2  -4 -13   48.19    1.30
  -2   4  13   46.37    1.32
   2  -4 -13   47.64    1.28
  -2   4  12  189.18    2.96
  -2   4  12  180.67    2.60
  -2   4  12  188.87    2.93
   2  -4 -12  196.00    2.91
  -2   4  12  199.75    3.08
  -2   4  12  197.97    2.99
   2  -4 -12  183.75    2.76
  -2   4  11    5.73    0.76
   2  -4 -11    8.02    0.63
   2  -4 -11    7.64    0.70
  -2   4  11    7.66    0.72
   2  -4 -11    7.54    0.56
  -2   4  11    9.24    0.77
   2  -4 -11    8.22    0.69
  -2   4  11    8.78    0.71
  -2   4  10  160.15    2.72
   2  -4 -10  167.68    2.73
   2  -4 -10  169.74    2.95
  -2   4  10  177.29    2.68
   2  -4 -10  161.48    2.44
   2  -4 -10  167.44    2.83
  -2   4  10  171.42    2.92
   2  -4  -9   18.96    0.83
   2  -4  -9   18.13    1.76
  -2   4   9   18.77    0.91
  -2   4   9   15.84    1.58
  -2   4   9   17.11    0.86
   2  -4  -9   19.76    0.94
  -2   4   9   20.85    0.97
   2  -4  -9   18.58    0.90
   2  -4  -9   18.46    0.95
  -2   4   9   16.83    1.52
  -2   4   9   16.65    0.91
   2  -4  -9   18.61    0.95
   2  -4  -8  688.85   10.66
  -2   4   8  737.70    9.50
  -2   4   8  727.63    6.17
  -2   4   8  705.68    6.03
  -2   4   8  714.56    9.87
   2  -4  -7   70.02    3.08
  -2   4   7   70.40    1.48
  -2   4   6  322.68    3.32
   2  -4  -6  327.03    6.49
  -2   4   6  335.79    6.15
  -2   4   5   31.42    0.88
   2  -4  -5   30.08    1.88
  -2   4   5   30.83    1.77
   2  -4  -4  423.78    7.64
   2  -4  -4  450.56    7.01
  -2   4   4  449.66    6.48
  -2   4   4  428.01    3.72
  -2   4   4  434.23    6.30
   2  -4  -3  120.11    3.75
   2  -4  -3  122.42    3.39
  -2   4   3  115.13    3.05
  -2   4   3  121.03    3.09
  -2   4   3  120.09    3.05
  -2   4   3  120.21    3.20
   2  -4  -2  373.79    6.50
   2  -4  -2  384.29    6.02
  -2   4   2  358.06    5.49
  -2   4   2  383.93    5.68
  -2   4   2  363.80    5.50
  -2   4   2  370.25    5.71
   2  -4  -2  384.90    5.28
   2  -4  -1   88.27    2.72
   2  -4  -1   81.20    2.89
   2  -4  -1   91.40    2.41
  -2   4   1   87.36    2.60
  -2   4   1   88.89    2.60
   2  -4  -1   91.76    2.59
  -2   4   1   90.56    2.64
  -2   4   0  395.61    5.75
   2  -4   0  405.94    6.05
  -2   4   0  397.38    5.27
   2  -4   0  406.82    5.97
   2  -4   0  412.25    5.67
  -2   4   0  396.37    5.90
  -2   4   0  392.93    5.85
   2  -4   1    1.64    0.62
   2  -4   1    2.10    0.53
   2  -4   1    2.77    0.56
  -2   4  -1    3.61    0.58
   2  -4   1    2.26    0.49
   2  -4   2 1200.94   11.80
   2  -4   2 1239.93   12.78
  -2   4  -2 1188.72   11.98
  -2   4  -2 1142.81   11.23
   2  -4   2 1207.61   12.44
  -2   4  -2 1162.15   10.93
   2  -4   3   53.05    2.55
   2  -4   3   49.70    2.43
  -2   4  -3   48.41    2.17
   2  -4   3   54.53    2.56
  -2   4  -3   50.85    2.03
   2  -4   4   58.20    2.81
   2  -4   4   55.41    2.87
  -2   4  -4   54.33    2.53
   2  -4   4   54.69    2.82
  -2   4  -4   55.79    2.24
  -2   4  -5  767.43    9.99
   2  -4   5  762.88   12.21
  -2   4  -5  790.78   10.02
  -2   4  -5  778.73   10.99
  -2   4  -5  801.43    9.74
  -2   4  -6  145.41    4.30
  -2   4  -6  150.71    4.89
  -2   4  -6  148.07    4.35
   2  -4   6  151.41    2.49
   2  -4   6  150.29    2.61
   2  -4   6  139.89    5.40
   2  -4   7  106.30    2.24
  -2   4  -7  102.26    3.81
   2  -4   7   92.63    4.80
  -2   4  -7  103.79    3.84
  -2   4  -7  101.21    4.25
   2  -4   7  100.17    2.21
   2  -4   7  101.95    2.11
  -2   4  -7  104.21    4.16
   2  -4   7   97.98    1.92
   2  -4   7   99.35    1.99
   2  -4   7  109.90    4.37
   2  -4   8   26.13    1.09
   2  -4   8   26.63    1.15
  -2   4  -8   25.74    2.30
   2  -4   8   24.71    1.15
  -2   4  -8   26.62    2.06
  -2   4  -8   23.29    2.10
   2  -4   8   24.29    1.04
   2  -4   9  530.68    5.82
  -2   4  -9  520.10    9.36
   2  -4   9  537.37    5.60
   2  -4   9  530.48    5.30
   2  -4   9  555.18    5.68
  -2   4  -9  549.27    9.96
  -2   4 -10    6.84    1.25
   2  -4  10    7.33    0.64
   2  -4  10    7.21    0.70
  -2   4 -10    7.26    0.59
   2  -4  10    6.41    0.64
   2  -4  10    6.06    0.55
   2  -4  11   20.93    0.94
  -2   4 -11   20.62    0.84
  -2   4 -11   20.64    1.81
   2  -4  11   20.23    0.95
   2  -4  11   20.55    0.89
   2  -4  12    0.79    0.37
  -2   4 -12    0.77    0.30
   2  -4  12    1.10    0.32
  -2   4 -12    0.63    0.28
   2  -4  12    0.55    0.27
   2  -4  13   18.83    0.70
  -2   4 -13   20.02    0.62
  -2   3  16   11.93    0.50
   2  -3 -16   11.30    0.45
  -2   3  16   10.29    0.45
  -2   3  15    1.26    0.36
  -2   3  15    2.09    0.34
   2  -3 -15    1.72    0.30
  -2   3  15    1.84    0.26
   2  -3 -15    1.69    0.31
   2  -3 -14    0.36    0.30
   2  -3 -14    0.06    0.28
  -2   3  14    0.08    0.36
  -2   3  14   -0.40    0.36
   2  -3 -14    0.44    0.33
  -2   3  13  207.60    3.02
   2  -3 -13  212.08    3.09
   2  -3 -13  203.98    2.96
  -2   3  12  190.89    3.00
  -2   3  12  194.66    2.95
   2  -3 -12  194.25    3.16
   2  -3 -12  189.48    2.77
   2  -3 -12  190.37    2.98
  -2   3  11    1.42    0.48
   2  -3 -11    2.00    0.49
   2  -3 -11    2.26    0.44
  -2   3  11    1.35    0.44
  -2   3  11    2.47    0.50
   2  -3 -11    1.66    0.38
  -2   3  10   -0.12    0.40
   2  -3 -10    0.11    0.62
   2  -3 -10   -0.01    0.34
  -2   3  10    0.09    0.54
  -2   3  10   -0.03    0.32
  -2   3  10   -0.05    0.35
  -2   3  10    1.15    0.73
   2  -3 -10    0.32    0.33
   2  -3 -10    0.11    0.31
  -2   3   9    5.11    0.99
  -2   3   9    8.98    0.65
   2  -3  -9    6.92    0.60
   2  -3  -9    6.82    0.60
  -2   3   9    7.58    0.69
  -2   3   9   10.01    0.77
   2  -3  -9    6.96    0.58
  -2   3   8  247.22    4.93
  -2   3   8  233.37    2.97
   2  -3  -8  236.23    5.72
  -2   3   8  231.47    2.91
  -2   3   8  243.47    5.27
   2  -3  -7 1207.36   13.50
  -2   3   7 1237.77   12.22
  -2   3   7 1227.32    8.62
  -2   3   7 1217.62    8.67
  -2   3   7 1241.55   12.64
   2  -3  -6  292.07    6.19
  -2   3   6  290.00    3.01
   2  -3  -5  486.32    7.78
   2  -3  -5  499.26    7.22
  -2   3   5  477.87    3.99
  -2   3   5  496.24    6.81
   2  -3  -4  529.97    7.77
   2  -3  -4  528.76    7.06
  -2   3   4  525.92    6.50
  -2   3   4  513.23    4.06
   2  -3  -3  129.09    3.12
  -2   3   3  118.32    2.76
  -2   3   3  126.78    2.83
  -2   3   3  124.76    2.87
  -2   3   3  124.69    3.00
   2  -3  -3  126.67    3.48
   2  -3  -2  471.96    6.74
   2  -3  -2  475.69    6.07
  -2   3   2  468.34    5.84
  -2   3   2  448.95    5.56
  -2   3   2  458.19    5.65
  -2   3   2  444.95    5.50
   2  -3  -1  153.76    3.16
   2  -3  -1  157.49    2.58
  -2   3   1  149.92    2.95
  -2   3   1  155.02    3.01
  -2   3   1  150.04    3.07
   2  -3  -1  151.55    3.51
   2  -3   0  869.39    8.33
   2  -3   0  900.35    7.78
  -2   3   0  804.79    7.51
   2  -3   0  840.00    8.93
   2  -3   0  890.50    8.72
  -2   3   0  847.10    8.15
  -2   3   0  835.14    8.18
   2  -3   1    4.95    0.65
   2  -3   1    5.33    0.81
   2  -3   1    4.81    0.59
   2  -3   1    4.58    0.59
  -2   3  -1    4.55    0.54
   2  -3   1    6.34    0.64
   2  -3   2  664.87    8.11
   2  -3   2  625.53    6.93
   2  -3   2  659.57    7.09
   2  -3   2  659.71    7.71
   2  -3   2  648.15    8.00
  -2   3  -2  625.45    6.99
   2  -3   2  652.80    7.95
  -2   3  -3    7.96    0.68
   2  -3   3    9.38    1.09
   2  -3   3    8.38    0.96
   2  -3   3    8.33    0.99
  -2   3  -3    8.00    0.77
   2  -3   3    8.07    0.86
   2  -3   4  135.27    3.82
   2  -3   4  124.53    3.88
   2  -3   4  128.02    4.08
  -2   3  -4  135.00    3.33
  -2   3  -4  125.33    3.34
  -2   3  -4  127.40    2.90
  -2   3  -5   27.41    1.73
   2  -3   5   29.92    1.97
  -2   3  -5   25.62    1.31
   2  -3   5   27.08    2.11
  -2   3  -5   27.79    1.64
  -2   3  -5   26.22    1.59
   2  -3   6   59.60    3.39
  -2   3  -6   64.37    2.64
  -2   3  -6   64.92    2.82
  -2   3  -6   63.19    2.75
  -2   3  -6   68.77    2.73
   2  -3   6   67.57    3.07
  -2   3  -7   12.16    1.28
   2  -3   7   12.27    1.40
   2  -3   7   10.96    1.63
  -2   3  -7   15.98    1.56
  -2   3  -7   11.64    1.47
  -2   3  -7   11.65    1.40
  -2   3  -8   25.39    1.96
  -2   3  -8   25.95    2.07
   2  -3   8   25.62    1.14
   2  -3   8   23.28    2.55
   2  -3   8   23.24    0.97
  -2   3  -8   26.41    0.97
   2  -3   8   23.01    1.11
  -2   3  -8   25.94    2.26
   2  -3   8   28.49    2.22
  -2   3  -8   25.03    2.00
   2  -3   8   21.70    1.06
   2  -3   8   25.23    1.01
   2  -3   9   18.43    0.96
   2  -3   9   16.27    0.96
  -2   3  -9   17.49    1.84
  -2   3  -9   20.60    2.12
  -2   3  -9   18.00    1.73
   2  -3   9   18.60    1.03
  -2   3  -9   19.79    1.89
  -2   3  -9   18.45    1.84
  -2   3  -9   18.80    0.86
   2  -3   9   18.01    1.03
   2  -3   9   17.97    0.87
   2  -3  10    1.92    0.49
   2  -3  10    2.21    0.51
  -2   3 -10    2.44    0.79
   2  -3  10    2.53    0.54
   2  -3  10    2.17    0.55
  -2   3 -10    1.94    0.92
  -2   3 -10    1.44    0.83
  -2   3 -10    2.02    0.39
   2  -3  10    1.17    0.42
   2  -3  11    7.29    0.71
  -2   3 -11    5.95    1.19
  -2   3 -11    6.99    0.55
   2  -3  11    6.90    0.71
   2  -3  11    6.49    0.63
   2  -3  11    7.79    0.64
   2  -3  12   16.88    0.89
   2  -3  12   17.10    0.94
  -2   3 -12   14.85    0.71
  -2   3 -12   16.23    0.79
   2  -3  12   16.16    0.78
  -2   3 -13   13.34    0.56
   2  -3  13   15.26    0.76
   2  -3  13   14.13    0.70
  -2   3 -13   14.24    0.65
   2  -3  13   15.45    0.62
   2  -3  14    7.32    0.51
  -2   3 -14    7.97    0.45
  -2   2  16    0.23    0.29
  -2   2  16    0.33    0.30
   2  -2 -16    0.32    0.24
  -2   2  15   20.67    0.82
   2  -2 -15   18.19    0.62
  -2   2  15   20.21    0.76
   2  -2 -15   18.71    0.61
  -2   2  15   18.26    0.59
   2  -2 -15   20.28    0.74
  -2   2  14  108.54    2.02
  -2   2  14  111.52    2.12
   2  -2 -14  108.02    1.85
  -2   2  14  104.72    1.80
   2  -2 -14  108.67    2.00
   2  -2 -14  103.78    1.82
  -2   2  13  429.02    4.73
   2  -2 -13  427.76    4.54
   2  -2 -13  441.26    4.77
  -2   2  13  428.50    4.49
   2  -2 -13  430.49    4.57
   2  -2 -13  427.54    4.50
   2  -2 -12  189.66    3.05
   2  -2 -12  191.78    3.07
   2  -2 -12  187.44    2.91
   2  -2 -12  191.22    2.92
  -2   2  12  189.47    2.92
   2  -2 -12  193.91    2.95
  -2   2  12  187.64    3.06
   2  -2 -11  144.40    2.63
  -2   2  11  142.47    2.63
  -2   2  11  147.01    2.63
   2  -2 -11  147.11    2.57
   2  -2 -11  147.47    2.69
   2  -2 -11  140.63    2.56
   2  -2 -11  149.74    2.57
  -2   2  11  150.28    2.81
   2  -2 -11  143.05    2.66
  -2   2  10   54.51    1.65
  -2   2  10   55.26    1.57
   2  -2 -10   58.10    1.54
   2  -2 -10   51.71    2.89
   2  -2 -10   55.56    1.59
   2  -2 -10   58.01    1.65
  -2   2  10   64.53    1.11
  -2   2  10   54.72    1.58
   2  -2 -10   57.50    1.56
  -2   2  10   60.17    1.72
  -2   2  10   51.95    1.44
   2  -2 -10   55.75    1.61
   2  -2  -9   43.64    2.52
   2  -2  -9   42.65    1.28
  -2   2   9   43.31    2.37
  -2   2   9   44.41    1.31
  -2   2   8  110.91    1.91
   2  -2  -8  114.75    3.82
  -2   2   8  112.31    3.59
  -2   2   8  114.89    3.24
   2  -2  -8  116.82    2.01
  -2   2   7    3.68    0.79
  -2   2   7    3.45    0.41
   2  -2  -7    3.03    0.76
  -2   2   7    2.47    0.65
  -2   2   7    3.10    0.41
  -2   2   6  151.94    3.44
  -2   2   6  150.06    1.98
  -2   2   6  158.74    3.64
   2  -2  -6  152.78    4.05
   2  -2  -5 1012.15   10.97
   2  -2  -5 1039.35   10.56
  -2   2   5 1019.39    9.65
   2  -2  -4   76.46    2.57
   2  -2  -4   79.67    2.42
  -2   2   4   76.55    2.24
   2  -2  -3   78.16    2.48
   2  -2  -3   74.07    2.18
  -2   2   3   75.84    2.08
  -2   2   3   72.59    1.91
   2  -2  -2    4.01    0.67
   2  -2  -2    4.88    0.59
  -2   2   2    3.95    0.47
  -2   2   2    4.47    0.53
   2  -2  -1  389.21    3.44
   2  -2  -1  403.48    4.70
   2  -2  -1  386.20    5.31
  -2   2   1  384.56    4.37
  -2   2   1  376.81    4.43
  -2   2   1  381.48    4.30
  -2   2   1  397.42    4.63
  -2   2   1  398.92    4.39
   2  -2   0  367.09    4.79
   2  -2   0  361.13    5.51
   2  -2   0  363.01    4.88
  -2   2   0  347.04    4.16
   2  -2   0  364.68    4.21
   2  -2   0  364.30    3.50
  -2   2   0  339.73    3.54
  -2   2   0  351.42    4.13
   2  -2   1  128.74    2.84
   2  -2   1  133.06    3.14
   2  -2   1  130.98    2.69
   2  -2   1  127.84    2.25
   2  -2   1  129.53    2.30
  -2   2  -1  121.96    2.23
   2  -2   1  125.67    2.71
   2  -2   2    3.19    0.66
   2  -2   2    3.23    0.59
   2  -2   2    3.23    0.40
   2  -2   2    2.55    0.45
   2  -2   2    3.13    0.60
  -2   2  -2    3.53    0.42
   2  -2   2    2.77    0.43
   2  -2   3    0.02    0.53
   2  -2   3    0.49    0.39
   2  -2   3    0.00    0.46
  -2   2  -3   -0.02    0.28
  -2   2  -3    0.11    0.35
   2  -2   3    0.05    0.35
   2  -2   3   -0.04    0.20
   2  -2   4   41.96    1.96
  -2   2  -4   41.74    1.41
  -2   2  -4   41.00    1.59
  -2   2  -4   42.24    1.81
  -2   2  -4   42.42    1.69
  -2   2  -4   42.98    1.43
   2  -2   4   46.15    2.32
  -2   2  -4   39.69    1.82
   2  -2   4   43.91    1.95
   2  -2   5  784.11    9.53
   2  -2   5  745.85   10.80
  -2   2  -5  794.46    9.23
  -2   2  -5  762.29    8.38
  -2   2  -5  748.30    7.99
  -2   2  -5  743.87    9.03
  -2   2  -5  758.78    7.19
   2  -2   5  785.56    9.51
   2  -2   6  118.66    3.67
   2  -2   6  118.96    3.67
   2  -2   6  116.74    4.47
  -2   2  -6  120.04    3.52
  -2   2  -6  122.25    3.23
  -2   2  -6  118.73    3.68
  -2   2  -6  117.25    2.96
  -2   2  -6  123.22    3.55
   2  -2   7  165.27    4.58
   2  -2   7  152.31    5.65
  -2   2  -7  168.26    4.52
  -2   2  -7  163.54    4.70
   2  -2   8   50.11    2.68
  -2   2  -8   50.38    2.75
   2  -2   8   44.97    3.29
  -2   2  -8   54.49    2.78
  -2   2  -8   45.71    2.63
   2  -2   9  898.55   12.36
   2  -2   9  896.92   16.08
   2  -2   9  922.03    8.31
  -2   2  -9  937.82    7.60
  -2   2  -9  972.85   13.45
   2  -2   9  909.61    8.54
  -2   2  -9  971.21   13.03
  -2   2  -9  949.09   12.94
   2  -2   9  870.29    7.98
  -2   2 -10  163.19    2.53
  -2   2 -10  163.39    5.23
   2  -2  10  157.35    2.94
   2  -2  10  156.52    2.97
  -2   2 -10  153.70    5.55
   2  -2  10  163.48    2.88
  -2   2 -10  167.27    5.33
  -2   2 -10  165.02    5.43
  -2   2 -10  163.06    2.65
   2  -2  10  157.69    2.88
   2  -2  11   23.64    1.12
  -2   2 -11   21.41    1.97
  -2   2 -11   22.83    0.93
   2  -2  11   21.91    1.15
  -2   2 -11   23.62    2.07
  -2   2 -11   23.70    1.01
  -2   2 -11   22.59    2.08
   2  -2  11   22.96    1.17
   2  -2  11   23.47    1.12
   2  -2  12    0.40    0.50
   2  -2  12    0.05    0.39
   2  -2  12    0.75    0.37
   2  -2  12    0.79    0.49
  -2   2 -12   -0.36    0.76
   2  -2  12    0.22    0.47
  -2   2 -12    0.33    0.25
  -2   2 -12   -0.04    0.30
   2  -2  13  107.66    1.85
   2  -2  13  107.34    2.07
  -2   2 -13  106.30    1.95
   2  -2  13  109.72    2.13
  -2   2 -13  101.70    1.66
  -2   2 -13  100.31    1.82
   2  -2  13  105.10    1.94
  -2   2 -14    1.29    0.29
   2  -2  14    1.18    0.38
  -2   2 -14    1.61    0.32
   2  -2  14    1.12    0.25
   2  -2  15    6.47    0.44
  -2   2 -15    7.12    0.40
  -2   1  16    1.10    0.29
   2  -1 -16    0.79    0.27
  -2   1  16    0.94    0.30
  -2   1  15   12.49    0.63
  -2   1  15   13.18    0.68
   2  -1 -15   12.36    0.57
  -2   1  15   12.96    0.63
   2  -1 -15   12.52    0.61
  -2   1  14   47.84    1.35
  -2   1  14   48.12    1.40
  -2   1  14   44.79    1.16
   2  -1 -14   46.99    1.27
   2  -1 -14   48.17    1.33
   2  -1 -14   46.45    1.25
  -2   1  13    6.34    0.64
  -2   1  13    6.91    0.70
  -2   1  13    6.73    0.60
   2  -1 -13    7.52    0.58
   2  -1 -13    7.56    0.64
   2  -1 -13    7.83    0.65
   2  -1 -13    6.99    0.55
   2  -1 -13    6.91    0.63
   2  -1 -13    7.05    0.66
  -2   1  12  395.34    4.65
   2  -1 -12  394.16    4.62
   2  -1 -12  390.89    4.56
   2  -1 -12  390.27    4.60
   2  -1 -12  391.73    4.68
  -2   1  12  399.01    4.51
  -2   1  11  166.03    2.99
  -2   1  11  166.93    2.84
   2  -1 -11  165.93    2.80
   2  -1 -11  171.57    2.85
   2  -1 -11  169.29    2.83
  -2   1  11  167.69    2.85
   2  -1 -11  170.48    2.85
  -2   1  11  180.29    3.11
   2  -1 -11  170.06    2.92
  -2   1  10   12.76    0.84
   2  -1 -10   12.94    0.78
  -2   1  10   10.41    0.56
   2  -1 -10   15.36    0.84
  -2   1  10   12.53    0.78
  -2   1  10   11.69    0.80
   2  -1 -10   13.61    0.80
   2  -1 -10   13.48    0.79
  -2   1  10   14.55    0.89
   2  -1 -10   13.00    0.83
  -2   1   9   -0.34    0.54
   2  -1  -9    0.40    0.31
  -2   1   8  210.33    2.71
   2  -1  -8  209.22    2.88
  -2   1   7    2.35    0.73
  -2   1   7    2.07    0.39
   2  -1  -7    1.97    0.59
  -2   1   7    1.06    0.55
   2  -1  -6  307.08    5.34
  -2   1   6  290.25    4.93
  -2   1   6  295.01    4.82
  -2   1   6  308.39    5.16
   2  -1  -5  872.81    9.28
  -2   1   5  874.08    8.55
  -2   1   5  895.86    8.92
  -2   1   4  114.14    2.29
   2  -1  -4  118.29    2.91
  -2   1   4  112.95    2.60
  -2   1   4  107.74    2.03
  -2   1   4  120.08    2.68
   2  -1  -3  308.18    4.63
  -2   1   3  288.16    4.14
   2  -1  -2    0.26    0.41
  -2   1   2    1.09    0.38
  -2   1   2    0.39    0.30
  -2   1   1 9562.27   54.61
   2  -1  -1 9607.07   56.26
   2  -1   0  868.30    8.84
   2  -1   0  871.98    6.64
  -2   1   0  855.80    6.39
  -2   1   0  863.46    6.37
   2  -1   1  436.06    3.79
  -2   1  -1  433.75    3.93
   2  -1   2 1081.28    9.47
   2  -1   2 1130.15    8.89
   2  -1   2  964.50    6.95
   2  -1   2 1073.91   10.32
  -2   1  -2 1031.85    7.73
  -2   1  -2 1116.50    8.45
  -2   1  -2 1073.40    7.11
   2  -1   2 1188.42   10.35
  -2   1  -3   41.61    1.41
   2  -1   3   39.76    1.63
   2  -1   3   44.12    1.81
   2  -1   3   41.38    1.33
   2  -1   3   38.12    1.89
  -2   1  -3   38.99    0.79
  -2   1  -3   43.63    1.32
   2  -1   4   98.71    2.84
   2  -1   4   87.89    2.55
   2  -1   4   93.94    1.99
  -2   1  -4  102.64    2.08
   2  -1   4   90.44    3.10
  -2   1  -4   91.00    2.13
  -2   1  -4   81.40    1.84
  -2   1  -4   89.42    2.62
  -2   1  -4   89.29    2.34
   2  -1   5    0.26    0.49
   2  -1   5    0.57    0.68
  -2   1  -5   -0.15    0.47
  -2   1  -5    0.60    0.51
  -2   1  -5    0.48    0.40
   2  -1   5    0.10    0.47
  -2   1  -5    0.88    0.41
   2  -1   6 2014.96   16.84
  -2   1  -6 1934.34   15.74
   2  -1   6 1926.78   19.90
  -2   1  -6 2012.03   17.30
  -2   1  -6 1934.54   16.43
  -2   1  -6 1918.42   12.14
   2  -1   6 2058.64   17.99
  -2   1  -6 1946.92   17.19
   2  -1   7  508.91    7.62
   2  -1   7  489.06    8.25
   2  -1   7  502.08    9.98
  -2   1  -7  502.03    4.33
  -2   1  -7  517.10    7.81
   2  -1   8  748.84    9.88
   2  -1   8  729.36   13.06
  -2   1  -8  754.86   10.84
  -2   1  -8  736.85   10.54
  -2   1  -8  724.23    5.81
  -2   1  -8  717.25    5.77
  -2   1  -8  736.02   10.45
  -2   1  -9   25.11    2.07
   2  -1   9   22.70    1.20
   2  -1   9   19.92    1.86
   2  -1   9   21.46    0.97
   2  -1   9   22.41    1.07
   2  -1   9   22.93    1.13
  -2   1  -9   22.49    1.90
  -2   1  -9   22.70    0.85
   2  -1   9   22.89    0.94
  -2   1  -9   24.94    2.05
   2  -1   9   22.05    0.96
   2  -1   9   19.79    2.39
   2  -1  10    1.78    0.53
   2  -1  10    1.52    0.96
  -2   1 -10    2.06    0.94
   2  -1  10    1.59    0.45
   2  -1  10    1.27    0.47
  -2   1 -10    1.20    0.72
   2  -1  10    1.62    0.47
  -2   1 -10    2.12    0.92
  -2   1 -10    2.35    0.46
   2  -1  11  387.55    4.65
  -2   1 -11  374.21    8.36
  -2   1 -11  379.04    8.27
   2  -1  11  371.76    4.71
   2  -1  11  372.96    4.82
   2  -1  11  359.85    4.96
  -2   1 -11  379.18    4.39
   2  -1  11  370.06    4.59
  -2   1 -11  371.70    4.21
  -2   1 -11  377.82    8.08
   2  -1  12    5.67    0.69
  -2   1 -12    4.63    1.11
   2  -1  12    4.95    0.66
   2  -1  12    4.45    0.65
  -2   1 -12    4.61    0.57
  -2   1 -12    4.76    0.50
  -2   1 -12    3.22    0.95
   2  -1  12    4.80    0.59
   2  -1  13  283.40    3.65
  -2   1 -13  261.53    3.18
  -2   1 -13  276.02    3.44
   2  -1  13  277.13    3.81
  -2   1 -13  289.18    3.57
   2  -1  13  289.21    3.77
  -2   1 -13  269.44    6.34
   2  -1  13  281.78    3.58
   2  -1  14   17.26    0.84
  -2   1 -14   17.05    0.67
   2  -1  14   16.84    0.68
   2  -1  14   17.71    0.75
   2  -1  14   16.79    0.84
   2  -1  14   17.13    0.83
  -2   1 -14   16.36    0.72
  -2   1 -14   18.06    0.78
  -2   1 -15   43.79    0.94
   2  -1  15   42.22    1.02
  -2   1 -15   41.26    0.79
  -2   0  15   15.78    0.69
   2   0 -15   16.06    0.65
  -2   0  15   15.85    0.66
  -2   0  15   15.63    0.66
   2   0 -15   15.31    0.65
  -2   0  14  425.66    4.29
   2   0 -14  385.48    3.83
   2   0 -14  402.83    4.08
   2   0 -14  407.43    4.01
  -2   0  14  402.05    3.75
  -2   0  14  411.99    4.12
   2   0 -14  406.74    4.10
  -2   0  14  406.47    4.14
  -2   0  13  114.86    2.07
   2   0 -13  109.67    2.10
   2   0 -13  115.97    2.21
   2   0 -13  112.56    2.22
   2   0 -13  114.03    2.21
   2   0 -13  117.06    2.19
  -2   0  13  114.61    2.25
  -2   0  13  117.67    2.34
  -2   0  12   12.95    0.94
   2   0 -12   12.90    0.85
   2   0 -12   13.39    0.84
   2   0 -12   12.41    0.85
  -2   0  12   12.27    0.78
  -2   0  12   10.69    0.76
  -2   0  12   11.93    0.82
   2   0 -12   11.70    0.73
  -2   0  12   12.30    0.90
   2   0 -12   12.65    0.84
  -2   0  11   42.85    1.53
  -2   0  11   42.14    1.45
  -2   0  11   42.57    1.51
   2   0 -11   42.83    1.45
   2   0 -11   40.26    1.30
  -2   0  11   40.12    1.33
  -2   0  11   42.66    1.40
   2   0 -11   42.39    1.42
   2   0 -11   41.24    1.32
   2   0 -11   40.33    1.31
   2   0 -11   43.64    1.46
  -2   0  10   15.51    0.96
  -2   0  10   15.15    0.87
   2   0 -10   14.62    0.80
   2   0 -10   16.49    0.85
   2   0 -10   13.95    0.78
   2   0 -10   15.73    0.88
   2   0 -10   14.98    0.87
  -2   0  10   11.60    0.61
  -2   0  10   13.62    0.86
   2   0 -10   14.82    0.88
   2   0  -9   93.32    1.97
   2   0  -9   93.36    1.89
  -2   0   8    2.11    0.78
   2   0  -8    1.94    0.38
   2   0  -8    1.58    0.34
  -2   0   7  109.24    3.57
   2   0  -7  111.90    3.23
  -2   0   7  104.52    1.63
   2   0  -7  110.90    1.94
  -2   0   7  110.06    1.80
  -2   0   6   72.88    2.57
   2   0  -6   76.10    2.43
   2   0  -6   74.78    2.34
   2   0  -5   21.41    1.22
  -2   0   5   21.10    1.29
  -2   0   5   20.63    1.31
  -2   0   5   21.17    1.10
   2   0  -5   19.81    1.20
   2   0  -4  582.91    6.55
  -2   0   4  603.31    6.57
   2   0  -3   81.35    2.12
  -2   0   3   78.33    2.12
  -2   0   3   84.11    1.78
  -2   0   2 7119.74   37.43
   2   0  -2 7208.84   38.28
  -2   0   2 7225.54   37.93
  -2   0   1 9781.46   53.50
   2   0  -1 9839.18   54.51
  -2   0   0 3859.98   22.53
   2   0   0 3956.94   24.89
   2   0   1 1670.43    9.98
  -2   0  -1 1790.70   11.85
  -2   0  -1 1734.40   11.47
  -2   0  -1 1685.83   10.33
   2   0   1 1736.09   13.44
  -2   0  -2  374.05    4.13
  -2   0  -2  377.79    4.44
  -2   0  -2  386.78    4.20
   2   0   2  376.88    5.15
   2   0   3  115.48    3.15
   2   0   3  120.34    2.83
  -2   0  -3  120.64    2.16
   2   0   4    4.01    0.70
  -2   0  -4    4.24    0.60
   2   0   4    5.52    0.98
   2   0   4    4.23    0.66
  -2   0  -4    4.67    0.49
  -2   0  -4    4.24    0.67
   2   0   5   20.95    1.46
   2   0   5   19.81    1.65
  -2   0  -5   17.46    1.18
   2   0   5   17.55    1.14
  -2   0  -5   21.25    1.38
  -2   0  -5   18.10    1.23
  -2   0  -5   18.79    1.14
   2   0   6  827.23    8.88
   2   0   6  835.42   10.14
   2   0   6  801.14   11.87
  -2   0  -6  855.85    9.93
  -2   0  -6  848.84    9.49
  -2   0  -6  848.29    9.56
  -2   0  -6  818.60    6.07
   2   0   7   27.51    1.86
   2   0   7   30.53    2.37
  -2   0  -7   31.28    1.87
  -2   0  -7   30.56    1.79
  -2   0  -7   29.87    0.89
   2   0   7   32.66    1.70
  -2   0  -7   28.80    1.75
   2   0   8   36.30    2.83
   2   0   8   33.50    2.19
  -2   0  -8   36.01    2.19
  -2   0  -8   34.36    1.01
  -2   0  -8   33.79    2.22
  -2   0  -8   34.18    1.01
  -2   0  -9    0.92    0.27
   2   0   9   -0.08    0.55
   2   0   9    1.22    1.02
  -2   0  -9   -0.11    0.65
  -2   0  -9    0.44    0.26
  -2   0  -9   -0.08    0.60
  -2   0 -10   89.42    3.95
   2   0  10   80.08    1.88
   2   0  10   80.90    4.74
   2   0  10   82.63    2.00
   2   0  10   83.55    2.07
  -2   0 -10   85.13    3.75
  -2   0 -10   82.67    1.74
   2   0  10   85.11    2.18
  -2   0 -10   84.01    1.75
   2   0  10   80.82    2.26
  -2   0 -10   85.01    3.61
   2   0  11   74.72    1.93
   2   0  11   75.84    1.91
  -2   0 -11   73.46    1.68
  -2   0 -11   71.50    1.63
  -2   0 -11   75.08    3.67
  -2   0 -11   77.16    3.57
   2   0  11   69.70    1.81
  -2   0 -11   74.73    3.72
   2   0  11   73.79    2.01
  -2   0 -11   75.74    1.86
   2   0  11   72.82    2.11
  -2   0 -11   76.51    1.79
   2   0  11   72.24    2.20
   2   0  12  520.08    5.64
  -2   0 -12  511.75    5.00
  -2   0 -12  521.34    9.54
   2   0  12  537.33    6.10
  -2   0 -12  528.69    9.90
   2   0  12  532.65    5.88
  -2   0 -12  531.93    5.47
   2   0  12  550.64    5.68
  -2   0 -12  539.44    5.35
   2   0  13   28.99    1.14
  -2   0 -13   27.42    1.08
   2   0  13   28.53    1.17
  -2   0 -13   28.14    1.00
   2   0  13   29.56    1.26
   2   0  13   28.18    1.20
  -2   0 -13   27.59    1.04
   2   0  13   27.81    1.26
  -2   0 -13   23.56    1.98
  -2   0 -13   25.65    2.11
  -2   0 -14  118.75    1.95
  -2   0 -14  115.82    2.01
  -2   0 -14  120.41    2.07
  -2   0 -14  109.35    1.74
   2   0  14  116.54    2.23
   2   0  14  117.34    2.12
   2   0  14  115.08    2.02
  -2   0 -14  110.38    1.88
   2   0  14  108.21    2.03
   2   0  15   16.23    0.69
   2   0  15   17.66    0.77
   2   0  15   15.64    0.56
  -2   0 -15   17.27    0.64
   2   0  15   17.15    0.72
  -2   0 -15   17.16    0.68
  -2   0 -15   18.47    0.71
   2   0  15   18.71    0.65
  -2   0 -16   45.77    0.83
  -2  -1  15    4.53    0.44
   2   1 -15    3.54    0.33
   2   1 -15    4.47    0.41
  -2  -1  15    4.35    0.40
  -2  -1  15    4.49    0.40
   2   1 -15    4.08    0.38
   2   1 -14   53.38    1.29
  -2  -1  14   53.90    1.37
   2   1 -14   50.10    1.24
  -2  -1  14   50.65    1.12
   2   1 -14   51.99    1.31
  -2  -1  14   52.84    1.28
   2   1 -14   52.08    1.27
  -2  -1  14   53.38    1.35
  -2  -1  13   52.82    1.55
   2   1 -13   49.99    1.42
  -2  -1  13   43.32    1.33
  -2  -1  13   53.86    1.37
   2   1 -13   50.25    1.46
   2   1 -13   44.80    1.28
   2   1 -13   51.22    1.43
   2   1 -13   51.77    1.45
  -2  -1  13   49.57    1.47
  -2  -1  13   51.54    1.43
   2   1 -13   50.14    1.41
  -2  -1  12   53.66    1.62
  -2  -1  12   53.97    1.71
  -2  -1  12   54.65    1.70
   2   1 -12   53.22    1.58
  -2  -1  12   52.22    1.50
   2   1 -12   55.56    1.62
   2   1 -12   51.01    1.49
  -2  -1  12   53.70    1.53
   2   1 -12   56.36    1.64
   2   1 -12   54.44    1.57
  -2  -1  11   17.38    1.06
  -2  -1  11   16.96    1.00
   2   1 -11   18.14    0.98
  -2  -1  11   16.96    0.99
  -2  -1  11   16.19    0.91
   2   1 -11   17.66    0.98
  -2  -1  11   18.44    0.95
   2   1 -11   17.87    0.93
   2   1 -11   17.48    0.95
   2   1 -11   17.49    0.96
  -2  -1  10    6.23    0.65
  -2  -1  10    5.70    0.67
   2   1 -10    6.73    0.67
  -2  -1  10    5.91    0.65
  -2  -1  10    6.03    0.62
  -2  -1  10    5.25    1.25
  -2  -1  10    6.35    0.60
   2   1 -10    5.94    0.63
   2   1 -10    6.17    0.59
   2   1 -10    5.70    0.51
   2   1 -10    5.95    0.62
  -2  -1   9  151.42    2.75
  -2  -1   9  138.24    2.53
  -2  -1   9  145.69    2.64
  -2  -1   9  133.63    4.98
   2   1  -9  140.36    2.49
   2   1  -9  142.48    2.54
   2   1  -9  146.13    4.51
   2   1  -9  146.85    2.57
  -2  -1   9  139.26    2.51
   2   1  -9  142.22    2.54
  -2  -1   8    9.62    1.33
   2   1  -8    9.85    0.65
   2   1  -8   10.12    0.66
   2   1  -8   10.22    1.20
   2   1  -7  213.43    4.67
  -2  -1   7  222.46    2.49
   2   1  -7  218.97    2.88
   2   1  -7  218.79    2.92
   2   1  -7  223.81    5.05
   2   1  -6   12.34    1.11
  -2  -1   6   12.88    1.26
   2   1  -6   12.52    0.63
   2   1  -6   13.53    1.23
   2   1  -5   37.86    1.61
   2   1  -5   46.60    1.60
   2   1  -5   40.70    1.79
  -2  -1   5   47.92    1.63
   2   1  -5   40.22    1.89
  -2  -1   4  224.85    4.47
  -2  -1   4  216.26    3.52
   2   1  -4  217.40    3.54
   2   1  -4  217.40    3.97
   2   1  -4  225.33    4.17
  -2  -1   3  125.99    2.22
   2   1  -3  126.43    2.88
  -2  -1   3  128.98    2.91
   2   1  -3  130.97    2.56
  -2  -1   3  123.61    2.55
   2   1  -3  127.89    2.46
  -2  -1   2 3402.45   21.92
  -2  -1   2 3455.06   21.84
   2   1  -2 3395.69   21.25
  -2  -1   2 3393.18   21.38
   2   1  -1  423.88    5.67
  -2  -1   1  435.61    4.25
   2   1  -1  433.77    4.24
   2   1   0 4262.58   27.52
  -2  -1   0 4285.27   26.04
   2   1   1   50.81    1.73
  -2  -1  -1   56.65    1.49
  -2  -1  -2  395.74    4.34
  -2  -1  -2  405.69    4.65
   2   1   3   75.83    2.28
  -2  -1  -3   79.32    2.02
  -2  -1  -3   79.47    1.99
  -2  -1  -3   78.31    1.78
   2   1   4   56.71    2.05
  -2  -1  -4   51.57    1.91
  -2  -1  -4   56.58    1.81
  -2  -1  -5 1504.00   12.72
   2   1   5 1543.00   15.74
  -2  -1  -5 1465.31   13.47
  -2  -1  -5 1532.75   13.22
   2   1   5 1556.36   14.07
  -2  -1  -5 1501.69   12.39
  -2  -1  -5 1464.96   12.75
   2   1   6   75.45    2.83
  -2  -1  -6   78.70    2.72
  -2  -1  -6   76.47    2.64
  -2  -1  -6   78.99    1.38
   2   1   6   80.93    3.42
  -2  -1  -6   76.73    2.55
  -2  -1  -6   73.82    2.25
   2   1   7   66.85    3.42
  -2  -1  -7   66.41    2.68
  -2  -1  -7   63.65    2.60
  -2  -1  -7   64.13    1.33
   2   1   7   64.20    2.79
  -2  -1  -7   66.70    2.51
  -2  -1  -8   13.20    1.17
   2   1   8   10.99    1.35
   2   1   8   13.70    1.81
  -2  -1  -8   12.52    1.32
  -2  -1  -8   12.96    0.65
  -2  -1  -8   13.99    0.68
  -2  -1  -9  100.87    3.85
   2   1   9   89.86    3.87
  -2  -1  -9  102.27    3.83
  -2  -1  -9  102.76    1.88
  -2  -1  -9  100.48    3.66
  -2  -1  -9   99.35    1.90
   2   1   9  101.29    4.83
   2   1  10  307.58    3.96
  -2  -1 -10  312.33    3.72
   2   1  10  311.99    4.15
   2   1  10  315.75    3.89
  -2  -1 -10  322.54    7.20
   2   1  10  308.57    4.25
  -2  -1 -10  311.80    3.74
   2   1  10  302.58    4.39
  -2  -1 -10  313.03    6.79
   2   1  10  303.05    4.47
  -2  -1 -10  321.30    7.27
   2   1  11  691.59    6.49
   2   1  11  685.26    7.37
  -2  -1 -11  659.58    6.07
  -2  -1 -11  706.79   11.44
  -2  -1 -11  697.52    6.47
   2   1  11  687.31    6.87
   2   1  11  676.30    6.62
   2   1  11  653.32    6.36
   2   1  11  682.61    6.99
  -2  -1 -11  695.74    6.39
  -2  -1 -11  665.74   10.70
  -2  -1 -11  697.27   11.46
  -2  -1 -11  677.15    6.22
   2   1  12  136.50    2.62
   2   1  12  139.21    2.58
  -2  -1 -12  138.24    4.68
  -2  -1 -12  141.07    2.51
   2   1  12  139.88    2.77
   2   1  12  140.27    2.90
  -2  -1 -12  129.17    4.83
  -2  -1 -12  144.06    2.57
  -2  -1 -12  138.38    2.42
   2   1  12  134.73    2.52
  -2  -1 -12  142.08    5.00
   2   1  12  136.65    3.07
   2   1  12  136.03    2.66
   2   1  13  147.32    2.60
   2   1  13  142.65    2.54
  -2  -1 -13  147.17    2.47
   2   1  13  149.28    2.88
  -2  -1 -13  148.95    2.51
   2   1  13  147.61    2.76
  -2  -1 -13  142.06    2.34
  -2  -1 -13  140.86    4.88
  -2  -1 -13  146.10    2.52
   2   1  13  141.85    2.52
  -2  -1 -13  141.68    4.48
   2   1  13  147.01    2.61
   2   1  14  127.49    2.20
  -2  -1 -14  119.97    1.93
   2   1  14  118.52    2.10
  -2  -1 -14  123.41    2.09
   2   1  14  124.80    2.41
   2   1  14  123.84    2.25
  -2  -1 -14  127.07    2.14
  -2  -1 -14  123.85    2.04
   2   1  14  130.23    2.39
  -2  -1 -14  125.48    2.16
  -2  -1 -14  127.25    2.18
   2   1  14  124.25    2.12
  -2  -1 -15   80.54    1.53
  -2  -1 -15   74.59    1.33
   2   1  15   77.35    1.59
   2   1  15   75.21    1.47
   2   1  15   76.13    1.41
  -2  -1 -15   75.37    1.44
  -2  -1 -15   78.83    1.45
  -2  -1 -16   -0.04    0.28
  -2  -1 -16    0.34    0.25
  -2  -2  15   84.42    1.25
   2   2 -15   79.76    1.18
  -2  -2  14    2.35    0.40
   2   2 -14    2.47    0.35
  -2  -2  14    2.11    0.42
   2   2 -14    2.33    0.39
   2   2 -14    1.96    0.37
   2   2 -14    1.89    0.25
  -2  -2  14    2.15    0.35
   2   2 -14    1.99    0.34
  -2  -2  14    1.90    0.29
  -2  -2  14    1.88    0.35
  -2  -2  13   49.60    1.45
   2   2 -13   46.28    1.33
   2   2 -13   47.99    1.35
  -2  -2  13   46.65    1.22
   2   2 -13   47.35    1.31
  -2  -2  13   45.40    1.36
   2   2 -13   42.47    1.22
  -2  -2  13   44.55    1.30
   2   2 -13   43.69    1.14
  -2  -2  13   46.85    1.28
   2   2 -13   44.29    1.23
  -2  -2  12   24.21    1.16
  -2  -2  12   23.08    0.98
   2   2 -12   21.95    0.98
  -2  -2  12   23.02    1.13
   2   2 -12   23.74    1.08
   2   2 -12   22.72    1.03
   2   2 -12   24.09    1.06
  -2  -2  12   22.41    1.05
  -2  -2  12   21.23    1.01
  -2  -2  12   22.02    1.08
   2   2 -12   22.45    1.00
  -2  -2  11  230.50    3.62
   2   2 -11  224.80    3.35
  -2  -2  11  228.02    3.59
   2   2 -11  224.80    3.29
  -2  -2  11  227.98    3.51
   2   2 -11  231.72    3.46
   2   2 -11  227.65    3.38
   2   2 -11  235.74    3.45
  -2  -2  11  230.92    3.35
  -2  -2  11  219.88    3.33
  -2  -2  11  226.02    3.50
  -2  -2  10   47.26    1.60
  -2  -2  10   44.19    1.53
  -2  -2  10   45.13    1.55
  -2  -2  10   42.08    1.41
   2   2 -10   47.46    1.52
   2   2 -10   44.00    1.45
   2   2 -10   48.48    1.52
   2   2 -10   42.54    2.67
   2   2 -10   46.33    1.48
  -2  -2  10   45.09    1.48
   2   2 -10   44.78    1.43
  -2  -2   9  213.97    3.31
  -2  -2   9  218.20    3.47
   2   2  -9  226.54    6.01
  -2  -2   9  200.08    6.49
   2   2  -9  219.11    5.47
  -2  -2   9  197.29    3.16
  -2  -2   9  212.83    3.36
  -2  -2   9  215.90    3.25
   2   2  -9  216.22    3.23
   2   2  -9  227.02    3.31
   2   2  -9  220.92    3.29
   2   2  -9  210.19    3.15
   2   2  -8   10.18    1.23
  -2  -2   8   10.07    1.46
   2   2  -8   11.30    0.73
   2   2  -8    9.98    1.30
   2   2  -8   11.20    0.73
   2   2  -7   40.54    1.25
   2   2  -7   42.35    2.37
   2   2  -7   42.27    1.24
   2   2  -7   41.76    2.25
   2   2  -7   41.66    2.04
  -2  -2   7   39.63    2.51
   2   2  -6  489.56    6.95
   2   2  -6  485.24    7.42
   2   2  -6  478.13    4.55
  -2  -2   6  464.57    8.54
  -2  -2   6  503.20    8.35
   2   2  -6  510.49    7.89
   2   2  -6  476.13    4.62
  -2  -2   5   68.99    2.94
   2   2  -5   73.02    1.46
   2   2  -5   65.14    2.38
   2   2  -5   76.09    2.74
   2   2  -5   70.87    2.54
  -2  -2   4    6.50    0.95
   2   2  -4    5.85    0.75
   2   2  -4    5.84    0.79
   2   2  -4    6.94    0.62
   2   2  -4    7.52    0.91
   2   2  -3   31.37    1.22
  -2  -2   3   31.15    1.60
  -2  -2   3   28.03    1.01
   2   2  -3   27.88    1.41
   2   2  -3   29.97    1.42
   2   2  -3   31.36    1.54
   2   2  -3   32.26    1.64
   2   2  -2 2503.28   17.58
   2   2  -2 2533.27   18.45
   2   2  -2 2488.90   18.22
   2   2  -2 2514.95   17.51
  -2  -2   1  337.57    4.31
   2   2  -1  341.70    4.93
  -2  -2   1  344.61    3.96
   2   2  -1  328.85    4.47
   2   2   0  123.82    2.72
   2   2   0  129.02    1.57
  -2  -2   0  130.56    2.37
   2   2   0  125.53    2.45
   2   2   0  128.15    1.62
   2   2   1  187.75    3.32
  -2  -2  -1  191.67    3.06
   2   2   1  182.35    3.07
  -2  -2  -1  188.09    2.71
   2   2   2  158.88    3.17
  -2  -2  -2  158.00    2.69
   2   2   3  166.29    3.37
  -2  -2  -3  169.11    3.00
  -2  -2  -4   15.98    0.69
   2   2   4   15.63    1.15
  -2  -2  -4   16.20    1.08
  -2  -2  -4   16.47    1.02
  -2  -2  -5 1305.57   12.13
  -2  -2  -5 1341.69   12.23
  -2  -2  -5 1306.25   11.36
   2   2   5 1295.89   12.56
  -2  -2  -6  679.19    8.52
  -2  -2  -6  668.97    8.65
  -2  -2  -6  673.68    7.89
  -2  -2  -6  689.54    5.35
   2   2   6  678.61    8.99
   2   2   7    3.23    0.79
  -2  -2  -7    3.59    0.37
  -2  -2  -7    3.74    0.67
  -2  -2  -7    3.53    0.32
   2   2   8   42.33    2.49
  -2  -2  -8   47.99    1.24
  -2  -2  -8   47.33    2.41
  -2  -2  -8   47.55    1.25
  -2  -2  -8   48.90    2.29
   2   2   9   11.31    1.46
  -2  -2  -9    9.88    1.25
  -2  -2  -9    9.76    0.63
  -2  -2  -9    9.58    1.11
  -2  -2  -9    8.42    1.12
  -2  -2  -9    8.87    0.61
   2   2  10  488.41    5.70
   2   2  10  505.89    5.58
  -2  -2 -10  512.47    9.13
   2   2  10  502.44    5.46
   2   2  10  494.13    5.85
  -2  -2 -10  511.55    5.14
   2   2  10  527.22    5.18
  -2  -2 -10  505.05    5.12
  -2  -2 -10  508.87    8.52
  -2  -2 -10  482.53    4.91
  -2  -2 -10  513.96    9.21
   2   2  11  415.79    4.60
   2   2  11  403.33    4.81
  -2  -2 -11  405.15    4.55
   2   2  11  396.46    5.34
  -2  -2 -11  410.66    4.63
  -2  -2 -11  427.10    4.68
  -2  -2 -11  421.14    4.64
   2   2  11  393.23    5.17
  -2  -2 -11  411.51    8.48
   2   2  11  414.64    5.09
  -2  -2 -11  403.11    7.86
   2   2  11  410.49    4.66
  -2  -2 -11  408.29    8.46
   2   2  11  416.02    4.98
   2   2  12   17.93    0.92
  -2  -2 -12   17.30    0.91
  -2  -2 -12   16.17    0.85
  -2  -2 -12   14.72    1.71
   2   2  12   16.28    0.99
   2   2  12   16.55    1.12
   2   2  12   15.56    0.93
  -2  -2 -12   16.96    0.91
  -2  -2 -12   15.13    1.55
  -2  -2 -12   16.95    0.93
   2   2  12   16.35    0.90
   2   2  12   16.97    1.04
  -2  -2 -12   17.28    1.83
   2   2  13    9.33    0.72
  -2  -2 -13    9.55    0.68
  -2  -2 -13    9.41    0.63
   2   2  13    9.27    0.82
   2   2  13    9.16    0.88
  -2  -2 -13    9.98    0.74
   2   2  13    9.42    0.79
  -2  -2 -13    7.51    1.22
  -2  -2 -13   10.05    0.71
   2   2  13    8.89    0.72
  -2  -2 -13    8.93    0.69
   2   2  13    9.90    0.68
   2   2  13    9.32    0.77
   2   2  14    1.77    0.39
  -2  -2 -14    1.12    0.35
   2   2  14    1.61    0.42
  -2  -2 -14    1.85    0.40
  -2  -2 -14    1.36    0.40
   2   2  14    1.34    0.47
   2   2  14    1.34    0.40
  -2  -2 -14    1.57    0.45
   2   2  14    1.35    0.50
   2   2  14    1.79    0.47
  -2  -2 -14    1.21    0.41
  -2  -2 -14    1.11    0.36
   2   2  14    1.48    0.44
   2   2  15  121.05    1.86
  -2  -2 -15  126.53    1.95
  -2  -2 -15  121.07    1.85
   2   2  15  121.68    2.07
  -2  -2 -15  120.31    1.68
  -2  -2 -15  125.11    1.92
   2   2  15  121.35    1.91
   2   2  15  120.72    1.88
  -2  -2 -16    3.16    0.35
  -2  -2 -16    3.10    0.30
   2   2  16    2.62    0.39
  -2  -2 -16    2.89    0.36
   2   3 -14    5.72    0.44
   2   3 -14    4.61    0.34
   2   3 -14    5.34    0.41
   2   3 -14    4.75    0.33
  -2  -3  14    5.20    0.41
  -2  -3  14    5.37    0.47
   2   3 -13   10.74    0.55
  -2  -3  13   11.94    0.71
   2   3 -13   11.38    0.67
   2   3 -13   12.13    0.66
  -2  -3  13   11.26    0.59
   2   3 -13   11.45    0.63
   2   3 -13   10.75    0.62
   2   3 -13   10.74    0.58
  -2  -3  13   12.02    0.68
  -2  -3  13   11.74    0.62
  -2  -3  12  107.58    2.00
   2   3 -12  108.55    2.16
  -2  -3  12  110.56    2.22
   2   3 -12  107.33    2.07
   2   3 -12  104.97    2.06
   2   3 -12  104.54    2.00
   2   3 -12  105.82    2.02
  -2  -3  12  107.93    2.16
   2   3 -12  107.18    1.99
  -2  -3  12  109.70    2.04
  -2  -3  12  104.99    2.14
   2   3 -12   99.32    1.85
  -2  -3  11  181.38    2.87
  -2  -3  11  180.28    3.11
  -2  -3  11  188.26    3.15
   2   3 -11  182.38    2.98
   2   3 -11  181.85    2.95
   2   3 -11  173.93    2.70
   2   3 -11  180.22    2.85
   2   3 -11  186.85    2.93
  -2  -3  11  185.58    3.11
  -2  -3  11  188.22    2.94
  -2  -3  11  185.82    3.11
  -2  -3  10  256.18    3.83
   2   3 -10  260.66    3.73
  -2  -3  10  258.60    3.65
   2   3 -10  237.65    6.08
   2   3 -10  251.51    3.64
  -2  -3  10  251.57    3.55
   2   3 -10  247.88    6.58
   2   3 -10  262.65    3.62
  -2  -3  10  258.21    3.83
   2   3 -10  255.08    3.52
  -2  -3  10  260.74    3.85
  -2  -3  10  252.39    3.76
   2   3 -10  248.62    3.40
   2   3  -9    0.97    0.35
  -2  -3   9    1.79    0.47
  -2  -3   9    0.49    0.39
  -2  -3   9    0.82    0.46
  -2  -3   9    2.12    1.09
  -2  -3   9    0.58    0.37
   2   3  -9    0.77    0.43
   2   3  -9    1.38    0.67
   2   3  -9    0.92    0.44
   2   3  -9    0.76    0.78
   2   3  -9    1.16    0.42
  -2  -3   9    0.99    0.45
   2   3  -9    0.54    0.67
   2   3  -9    0.90    0.44
  -2  -3   9    0.94    0.39
  -2  -3   8  259.84    3.69
  -2  -3   8  251.24    7.17
  -2  -3   8  253.06    3.64
   2   3  -8  229.08    6.17
   2   3  -8  255.18    3.54
  -2  -3   8  249.06    3.56
   2   3  -8  259.93    3.45
   2   3  -8  253.84    6.21
   2   3  -8  257.83    3.46
   2   3  -8  257.87    3.60
   2   3  -8  251.64    5.79
  -2  -3   8  244.78    3.42
  -2  -3   8  241.95    3.71
   2   3  -8  266.81    6.72
  -2  -3   8  247.78    3.60
   2   3  -8  248.80    3.32
   2   3  -7  250.07    3.37
   2   3  -7  238.79    3.20
  -2  -3   7  241.66    6.65
   2   3  -7  252.41    6.26
   2   3  -7  248.28    5.87
   2   3  -7  250.67    5.60
   2   3  -6   34.34    1.08
  -2  -3   6   33.90    2.44
  -2  -3   6   37.86    2.46
   2   3  -6   34.37    2.11
   2   3  -6   34.10    1.13
   2   3  -6   38.53    2.23
   2   3  -6   33.36    1.95
   2   3  -6   35.93    2.28
   2   3  -5  133.46    4.05
  -2  -3   5  126.92    4.37
   2   3  -5  130.19    3.87
   2   3  -5  132.24    2.14
   2   3  -5  132.37    3.82
   2   3  -5  132.84    3.65
   2   3  -4   13.64    1.31
   2   3  -4   15.31    0.67
  -2  -3   4   13.08    1.37
   2   3  -4   12.33    1.20
   2   3  -4   14.04    1.24
   2   3  -4   14.17    1.19
   2   3  -3   22.03    1.43
  -2  -3   3   21.13    1.50
   2   3  -3   22.87    1.43
   2   3  -3   20.22    1.44
   2   3  -3   24.76    1.63
   2   3  -2  284.14    5.15
   2   3  -2  282.29    4.86
  -2  -3   2  285.29    4.92
   2   3  -2  290.75    5.09
   2   3  -2  292.02    4.84
  -2  -3   1   30.58    1.48
   2   3  -1   29.92    1.48
   2   3   0  899.78    8.58
  -2  -3   0  936.35    8.87
   2   3   0  927.75    9.00
   2   3   0  896.98    7.34
   2   3   0  940.32    7.34
   2   3   1   58.95    1.84
  -2  -3  -1   63.77    1.95
   2   3   1   58.54    1.97
   2   3   1   59.26    1.42
   2   3   1   57.74    1.85
   2   3   2    2.94    0.49
  -2  -3  -2    1.62    0.45
  -2  -3  -2    2.87    0.57
   2   3   2    2.05    0.56
   2   3   2    1.22    0.28
   2   3   2    0.85    0.40
   2   3   3   14.92    1.05
  -2  -3  -3   16.20    1.12
  -2  -3  -3   15.38    0.98
   2   3   4  364.78    5.71
  -2  -3  -4  393.89    4.65
   2   3   4  388.27    4.11
  -2  -3  -4  404.01    5.98
  -2  -3  -4  402.41    4.78
  -2  -3  -4  381.17    5.30
  -2  -3  -4  408.06    5.66
   2   3   5    5.47    0.82
  -2  -3  -5    6.43    0.59
  -2  -3  -5    5.75    0.72
  -2  -3  -5    6.91    0.83
  -2  -3  -5    5.97    0.40
  -2  -3  -5    6.03    0.64
   2   3   6  341.51    6.21
  -2  -3  -6  351.41    5.74
  -2  -3  -6  357.80    6.07
  -2  -3  -6  350.37    3.45
  -2  -3  -6  352.99    5.22
  -2  -3  -7  421.37    6.80
  -2  -3  -7  414.98    4.08
  -2  -3  -7  412.51    4.07
   2   3   8   21.15    1.81
  -2  -3  -8   23.24    0.91
  -2  -3  -8   21.69    1.62
  -2  -3  -8   21.73    0.88
  -2  -3  -8   19.70    1.48
  -2  -3  -8   22.28    1.69
   2   3   9   89.60    3.90
  -2  -3  -9  100.10    1.98
  -2  -3  -9   96.04    3.56
  -2  -3  -9   96.31    1.96
  -2  -3  -9   95.74    3.26
  -2  -3  -9   98.43    3.66
  -2  -3 -10   16.95    0.88
   2   3  10   14.45    0.96
   2   3  10   16.24    1.82
  -2  -3 -10   16.49    0.85
  -2  -3 -10   18.96    0.87
  -2  -3 -10   16.13    1.64
   2   3  10   15.85    0.98
   2   3  10   16.49    0.95
   2   3  10   17.32    0.94
  -2  -3 -10   17.50    0.90
  -2  -3 -10   17.14    0.91
  -2  -3 -10   17.35    0.86
  -2  -3 -10   17.67    1.68
  -2  -3 -10   16.26    1.57
  -2  -3 -11 1286.38   10.03
  -2  -3 -11 1288.33   10.00
  -2  -3 -11 1278.54    9.92
  -2  -3 -11 1294.88    9.72
  -2  -3 -11 1227.88    9.73
   2   3  11 1277.84   10.46
   2   3  11 1272.77   10.27
  -2  -3 -11 1282.32    9.84
   2   3  11 1272.86   10.81
  -2  -3 -11 1281.95   15.57
  -2  -3 -11 1271.26   15.42
  -2  -3 -12  113.74    2.29
  -2  -3 -12  107.43    2.21
   2   3  12  106.67    2.59
  -2  -3 -12  109.89    2.22
   2   3  12  110.07    2.46
  -2  -3 -12  109.83    2.17
   2   3  12  105.43    2.44
   2   3  12  112.45    2.25
  -2  -3 -12  104.85    4.13
   2   3  12  111.07    2.40
  -2  -3 -12  105.69    4.17
   2   3  12  111.03    2.34
   2   3  13   -0.11    0.40
  -2  -3 -13    0.09    0.38
   2   3  13   -0.03    0.44
   2   3  13    0.00    0.43
  -2  -3 -13    0.19    0.39
  -2  -3 -13   -0.25    0.33
   2   3  13    0.03    0.41
  -2  -3 -13    0.11    0.32
   2   3  13   -0.15    0.44
  -2  -3 -13   -0.22    0.37
   2   3  13    0.09    0.44
  -2  -3 -13    0.17    0.54
  -2  -3 -14    0.16    0.35
   2   3  14    1.44    0.48
   2   3  14    0.51    0.43
   2   3  14    0.34    0.37
  -2  -3 -14    0.14    0.37
  -2  -3 -14    0.35    0.30
  -2  -3 -14    0.54    0.37
   2   3  14    0.21    0.33
   2   3  14    0.68    0.43
   2   3  14    0.42    0.41
  -2  -3 -14    0.11    0.28
   2   3  15  184.44    2.38
  -2  -3 -15  185.79    2.39
  -2  -3 -15  189.95    2.40
   2   3  15  185.09    2.30
  -2  -3 -15  188.28    2.47
  -2  -3 -15  189.76    2.42
   2   3  15  185.25    2.58
   2   3  15  189.80    2.57
  -2  -3 -16  115.76    1.53
   2   3  16  114.89    1.65
  -2  -3 -16  113.95    1.51
   2   4 -13   12.63    0.56
  -2  -4  13   13.67    0.53
   2   4 -13   13.39    0.58
  -2  -4  13   13.32    0.62
   2   4 -13   13.25    0.63
   2   4 -12   56.68    1.35
  -2  -4  12   59.62    1.52
   2   4 -12   58.36    1.45
   2   4 -12   56.22    1.33
  -2  -4  12   59.95    1.38
   2   4 -12   55.60    1.26
  -2  -4  12   60.42    1.49
   2   4 -12   55.04    1.38
  -2  -4  12   55.34    1.25
  -2  -4  11   22.69    1.08
   2   4 -11   22.20    1.03
  -2  -4  11   22.11    1.07
   2   4 -11   22.16    0.95
  -2  -4  11   21.99    0.98
   2   4 -11   20.17    0.87
   2   4 -11   22.17    1.00
   2   4 -11   18.58    0.86
  -2  -4  11   19.89    0.89
  -2  -4  10    1.04    0.46
  -2  -4  10    0.38    0.45
   2   4 -10    1.03    0.39
  -2  -4  10    1.04    0.49
   2   4 -10    1.43    0.42
   2   4 -10    2.77    0.44
  -2  -4  10    1.01    0.41
  -2  -4  10    0.95    0.47
   2   4 -10    1.60    0.47
   2   4 -10    1.18    0.72
   2   4 -10    1.87    0.88
  -2  -4  10    1.17    0.40
  -2  -4   9  434.01    5.09
  -2  -4   9  428.75    5.19
   2   4  -9  443.94    9.14
  -2  -4   9  449.84    4.97
   2   4  -9  432.39    4.87
   2   4  -9  428.73    4.70
   2   4  -9  440.15    4.79
  -2  -4   9  442.81    5.26
   2   4  -9  462.92    5.17
   2   4  -9  424.80    8.52
   2   4  -9  416.80    7.97
  -2  -4   9  435.60    5.03
  -2  -4   9  420.19    4.78
  -2  -4   9  438.89    5.18
  -2  -4   8   18.07    1.00
  -2  -4   8   16.44    0.90
  -2  -4   8   13.83    1.96
   2   4  -8   14.11    1.65
   2   4  -8   16.36    0.90
   2   4  -8   15.56    1.63
   2   4  -8   16.51    0.85
   2   4  -8   17.69    1.91
   2   4  -8   17.32    0.88
  -2  -4   8   16.52    1.00
   2   4  -8   18.58    1.83
  -2  -4   8   15.47    0.95
  -2  -4   8   16.15    0.94
   2   4  -8   17.45    0.97
  -2  -4   8   16.10    0.97
  -2  -4   7   47.50    1.50
  -2  -4   7   47.39    1.54
  -2  -4   7   47.08    1.49
  -2  -4   7   44.89    3.21
  -2  -4   7   48.09    3.19
  -2  -4   7   46.67    1.50
   2   4  -7   48.55    2.84
   2   4  -7   48.15    1.43
   2   4  -7   46.78    1.34
  -2  -4   7   48.06    1.58
   2   4  -7   49.73    1.51
   2   4  -7   48.33    2.64
   2   4  -7   48.65    2.82
   2   4  -7   47.70    1.39
  -2  -4   7   46.73    1.41
   2   4  -7   51.71    3.02
   2   4  -6  693.74   10.92
  -2  -4   6  625.53   11.49
  -2  -4   6  688.96   11.49
   2   4  -6  668.83    6.19
   2   4  -6  678.73   10.50
   2   4  -6  640.67    5.84
   2   4  -6  683.99   10.41
   2   4  -6  684.17    9.96
  -2  -4   5 1273.36   16.07
   2   4  -5 1391.05   15.45
   2   4  -5 1324.50   15.02
   2   4  -5 1268.06    9.25
   2   4  -5 1321.64    9.71
   2   4  -5 1337.31   14.82
   2   4  -5 1347.09   14.31
  -2  -4   4    5.06    1.04
   2   4  -4    4.78    0.91
   2   4  -4    5.40    0.93
   2   4  -4    5.60    0.95
   2   4  -4    5.45    0.48
   2   4  -4    5.48    0.96
   2   4  -3    0.41    0.50
   2   4  -3    0.63    0.55
   2   4  -3    0.78    0.60
  -2  -4   3    0.71    0.62
   2   4  -3    0.48    0.59
   2   4  -3    0.71    0.26
  -2  -4   2   96.96    3.22
   2   4  -2  102.41    3.18
   2   4  -2   98.34    3.14
   2   4  -2   97.58    1.66
   2   4  -2   97.94    1.71
   2   4  -2   99.90    3.06
  -2  -4   1 1738.57   15.61
   2   4  -1 1884.45   16.06
  -2  -4   0  234.71    4.51
   2   4   0  235.83    4.55
   2   4   0  225.19    3.60
   2   4   0  224.86    3.56
   2   4   1  127.01    2.74
  -2  -4  -1  135.65    3.35
   2   4   1  128.27    3.28
   2   4   1  134.52    2.65
   2   4   1  130.41    2.61
   2   4   1  127.48    3.20
   2   4   2  503.56    6.18
  -2  -4  -2  497.34    6.88
   2   4   2  522.44    7.03
  -2  -4  -2  505.90    5.73
   2   4   2  511.92    6.91
   2   4   2  497.53    5.53
  -2  -4  -3  164.30    3.50
   2   4   3  161.44    3.44
   2   4   3  171.89    3.95
  -2  -4  -3  166.22    3.04
  -2  -4  -3  162.53    3.34
   2   4   3  168.53    3.86
   2   4   3  168.18    3.06
   2   4   3  172.76    3.03
  -2  -4  -4  236.99    4.07
  -2  -4  -4  232.93    3.89
  -2  -4  -4  230.37    4.29
   2   4   4  236.47    3.84
  -2  -4  -4  227.57    2.44
   2   4   5    4.83    0.79
  -2  -4  -5    4.88    0.41
  -2  -4  -5    4.89    0.66
  -2  -4  -5    5.04    0.65
  -2  -4  -5    4.69    0.37
  -2  -4  -6  655.30    7.98
  -2  -4  -6  632.74    5.29
   2   4   6  622.46    5.26
  -2  -4  -6  640.12    5.31
  -2  -4  -6  619.12    5.42
  -2  -4  -6  670.44    9.38
  -2  -4  -7  162.81    4.01
  -2  -4  -7  155.97    2.33
  -2  -4  -7  156.78    2.35
  -2  -4  -7  164.33    4.65
  -2  -4  -8  373.63    7.35
  -2  -4  -8  358.60    3.83
  -2  -4  -8  372.95    4.04
  -2  -4  -8  366.15    4.02
   2   4   9  211.67    3.40
  -2  -4  -9  219.08    3.15
  -2  -4  -9  218.35    2.83
  -2  -4  -9  209.53    3.07
  -2  -4  -9  217.16    3.14
  -2  -4  -9  226.63    5.42
  -2  -4  -9  218.31    2.97
  -2  -4  -9  222.90    5.87
  -2  -4  -9  219.46    3.19
  -2  -4  -9  224.72    3.18
   2   4   9  206.01    3.17
  -2  -4 -10   44.91    1.44
  -2  -4 -10   48.44    1.39
   2   4  10   44.35    1.51
  -2  -4 -10   46.27    1.45
  -2  -4 -10   45.18    2.57
  -2  -4 -10   44.65    1.44
   2   4  10   47.22    1.62
  -2  -4 -10   42.95    2.65
  -2  -4 -10   44.81    1.28
  -2  -4 -11  510.96    5.45
  -2  -4 -11  506.07    5.45
   2   4  11  494.95    5.86
  -2  -4 -11  511.71    5.20
  -2  -4 -11  492.45    8.90
   2   4  11  488.86    5.60
  -2  -4 -11  503.00    5.38
  -2  -4 -11  485.03    9.12
   2   4  11  523.17    5.77
  -2  -4 -11  511.97    5.04
   2   4  11  502.70    5.60
  -2  -4 -12   97.28    2.16
  -2  -4 -12   94.83    2.11
   2   4  12   94.39    2.35
   2   4  12   93.04    2.19
  -2  -4 -12   93.33    1.92
   2   4  12   99.06    2.29
   2   4  12   97.39    2.05
  -2  -4 -12   93.70    2.00
   2   4  12   95.52    2.22
  -2  -4 -13  117.83    2.27
   2   4  13  114.20    2.24
  -2  -4 -13  112.12    2.21
   2   4  13  113.58    2.37
  -2  -4 -13  114.48    2.17
   2   4  13  111.33    2.50
  -2  -4 -13  119.03    2.29
  -2  -4 -13  111.67    2.03
   2   4  13  116.96    2.19
  -2  -4 -13  110.27    2.11
   2   4  13  118.83    2.41
  -2  -4 -14    8.23    0.63
   2   4  14    8.04    0.59
  -2  -4 -14    8.13    0.63
   2   4  14    7.53    0.64
  -2  -4 -14    7.84    0.57
   2   4  14    8.07    0.61
   2   4  14    7.29    0.67
   2   4  14    8.49    0.69
   2   4  14    7.60    0.68
   2   4  15   55.63    1.20
  -2  -4 -15   54.52    1.13
  -2  -4 -15   59.26    1.30
   2   4  15   58.39    1.37
   2   4  15   55.20    1.30
   2   4  15   56.93    1.24
  -2  -4 -15   56.90    1.22
   2   4  15   57.42    1.37
  -2  -4 -16    6.20    0.42
   2   4  16    5.74    0.45
   2   4  16    6.53    0.45
   2   5 -13    9.51    0.44
  -2  -5  13   10.24    0.47
   2   5 -13   10.32    0.43
   2   5 -12    1.52    0.32
   2   5 -12    1.68    0.26
  -2  -5  12    2.12    0.33
  -2  -5  12    2.03    0.38
   2   5 -12    1.80    0.35
   2   5 -11    2.45    0.42
   2   5 -11    1.20    0.36
   2   5 -11    1.41    0.32
   2   5 -11    1.61    0.38
  -2  -5  11    1.58    0.40
  -2  -5  11    1.02    0.41
   2   5 -11    1.15    0.31
  -2  -5  11    0.99    0.29
   2   5 -10    9.67    0.70
  -2  -5  10   10.30    0.79
   2   5 -10    8.91    0.61
  -2  -5  10    9.42    0.79
  -2  -5  10    9.78    0.71
   2   5 -10    9.92    0.71
   2   5 -10    8.55    0.64
   2   5 -10    9.62    0.60
  -2  -5  10    8.76    0.62
  -2  -5   9  254.00    3.33
   2   5  -9  245.75    6.40
  -2  -5   9  260.47    3.53
   2   5  -9  249.40    3.55
   2   5  -9  243.73    3.31
  -2  -5   9  259.16    3.68
  -2  -5   9  247.31    3.38
   2   5  -9  238.80    3.12
  -2  -5   9  252.76    3.78
   2   5  -9  258.58    3.64
   2   5  -9  235.13    5.91
  -2  -5   9  253.63    3.78
  -2  -5   8  290.97    3.97
  -2  -5   8  322.07    4.15
   2   5  -8  300.72    3.82
   2   5  -8  322.55    4.18
  -2  -5   8  316.52    4.23
   2   5  -8  320.72    7.81
  -2  -5   8  304.07    4.30
  -2  -5   8  311.84    4.25
   2   5  -8  305.30    7.37
   2   5  -8  311.70    4.10
   2   5  -8  307.15    7.04
  -2  -5   8  306.64    3.87
  -2  -5   7 1432.21   11.13
  -2  -5   7 1518.82   11.53
  -2  -5   7 1481.99   11.65
   2   5  -7 1530.60   11.39
   2   5  -7 1461.95   10.91
   2   5  -7 1388.15   17.30
   2   5  -7 1559.00   11.50
  -2  -5   7 1459.31   11.45
   2   5  -7 1558.43   18.53
  -2  -5   7 1493.16   11.71
   2   5  -7 1553.26   17.92
   2   5  -7 1512.99   17.08
  -2  -5   7 1445.32   10.97
   2   5  -6   62.44    3.34
  -2  -5   6   49.74    3.43
  -2  -5   6   56.89    1.66
  -2  -5   6   55.96    3.45
   2   5  -6   58.86    1.62
   2   5  -6   55.67    3.06
  -2  -5   6   54.00    1.63
   2   5  -6   59.05    3.17
  -2  -5   6   56.98    1.70
   2   5  -6   57.86    3.02
  -2  -5   6   58.44    1.72
   2   5  -6   57.89    1.64
  -2  -5   6   56.06    1.52
  -2  -5   5  462.00    9.48
   2   5  -5  449.50    8.57
   2   5  -5  469.78    8.98
   2   5  -5  455.00    8.68
   2   5  -5  459.29    8.34
   2   5  -5  440.59    4.82
  -2  -5   4    7.02    1.29
   2   5  -4    7.94    1.21
   2   5  -4    7.89    0.59
   2   5  -4    7.10    1.19
   2   5  -4    8.35    1.22
   2   5  -4    7.87    1.22
  -2  -5   3   69.01    3.25
   2   5  -3   72.14    3.09
   2   5  -3   74.88    3.16
   2   5  -3   71.19    1.57
   2   5  -3   69.92    1.66
   2   5  -3   74.36    3.06
  -2  -5   2  477.45    8.27
   2   5  -2  480.25    7.97
   2   5  -2  478.96    4.51
   2   5  -2  467.57    4.71
   2   5  -2  486.99    7.82
   2   5  -1   47.35    1.25
  -2  -5   1   45.35    2.37
   2   5  -1   47.75    2.33
   2   5  -1   46.00    1.87
   2   5  -1   45.64    1.14
  -2  -5   0  377.10    6.70
   2   5   0  379.53    5.48
   2   5   0  378.66    6.60
   2   5   0  374.12    5.50
   2   5   0  376.70    3.85
  -2  -5  -1  119.32    3.59
  -2  -5  -1  124.58    3.66
   2   5   1  118.72    3.56
   2   5   1  120.44    2.92
   2   5   1  118.15    1.91
   2   5   1  118.41    2.93
  -2  -5  -1  117.90    3.07
   2   5   1  118.34    3.49
  -2  -5  -2  426.52    6.81
   2   5   2  414.60    6.81
   2   5   2  393.44    6.64
   2   5   2  388.16    5.43
  -2  -5  -2  377.09    6.12
  -2  -5  -3  768.18    9.36
   2   5   3  780.10    9.94
   2   5   3  770.82    8.14
   2   5   3  751.86    9.69
  -2  -5  -3  732.25    5.94
  -2  -5  -3  715.49    9.22
   2   5   3  732.87    8.06
  -2  -5  -4  606.23    7.94
   2   5   4  596.45    7.18
  -2  -5  -4  588.63    5.16
  -2  -5  -4  587.62    8.53
   2   5   5  116.21    1.93
   2   5   5  110.72    3.36
   2   5   5  126.18    3.18
  -2  -5  -5  124.31    3.37
  -2  -5  -5  118.90    1.84
  -2  -5  -5  127.65    3.97
   2   5   5  120.81    3.00
  -2  -5  -6   48.02    1.21
  -2  -5  -6   46.40    1.19
   2   5   6   44.90    1.22
  -2  -5  -6   49.71    2.62
  -2  -5  -7  256.96    3.19
   2   5   7  252.51    3.20
  -2  -5  -7  250.37    3.18
  -2  -5  -8   60.86    1.54
  -2  -5  -8   62.33    1.56
  -2  -5  -9    4.24    0.51
  -2  -5  -9    4.54    0.52
  -2  -5  -9    4.13    0.51
   2   5   9    3.25    0.52
   2   5   9    3.21    0.46
   2   5   9    3.28    0.95
  -2  -5  -9    3.72    0.46
  -2  -5  -9    3.14    0.42
  -2  -5  -9    4.14    0.54
  -2  -5  -9    3.96    0.53
  -2  -5  -9    4.33    0.99
   2   5   9    4.16    0.53
   2   5   9    3.41    0.46
  -2  -5 -10  441.40    4.96
   2   5  10  437.96    5.26
  -2  -5 -10  427.25    4.55
  -2  -5 -10  439.63    4.73
  -2  -5 -10  443.86    5.05
  -2  -5 -10  447.11    4.96
  -2  -5 -10  436.54    4.82
  -2  -5 -10  428.38    8.90
   2   5  10  414.72    4.62
  -2  -5 -11  196.26    3.11
  -2  -5 -11  191.00    3.09
   2   5  11  185.25    3.28
  -2  -5 -11  189.06    2.85
   2   5  11  191.53    3.16
  -2  -5 -11  188.04    2.83
  -2  -5 -12    7.40    0.68
  -2  -5 -12    8.10    0.70
   2   5  12    7.19    0.72
  -2  -5 -12    7.90    0.69
   2   5  12    7.99    0.72
  -2  -5 -12    7.92    0.61
   2   5  12    9.76    0.80
  -2  -5 -13    0.68    0.41
   2   5  13    0.11    0.36
  -2  -5 -13   -0.28    0.34
   2   5  13    0.24    0.38
  -2  -5 -13    0.21    0.37
  -2  -5 -13    0.69    0.39
   2   5  13    0.45    0.37
   2   5  13    1.09    0.49
  -2  -5 -14   25.17    0.96
   2   5  14   23.97    0.91
   2   5  14   24.61    1.02
   2   5  14   24.57    1.01
   2   5  14   25.38    1.00
   2   5  14   25.11    0.92
  -2  -5 -14   25.09    0.95
   2   5  14   26.62    1.10
  -2  -5 -14   24.95    0.86
  -2  -5 -15    0.86    0.25
   2   5  15    1.40    0.31
  -2  -5 -15    1.23    0.33
  -2  -5 -15    1.19    0.26
   2   5  15    0.87    0.37
   2   5  15    0.95    0.31
   2   5  15    1.06    0.29
   2   5  15    0.89    0.37
  -2  -5 -16    0.51    0.26
   2   5  16    0.61    0.30
   2   5  16    0.95    0.31
   2   6 -12    1.49    0.30
   2   6 -12    1.42    0.29
  -2  -6  12    1.60    0.32
   2   6 -12    1.25    0.28
   2   6 -11    0.28    0.23
   2   6 -11    0.21    0.30
  -2  -6  11    0.39    0.31
  -2  -6  11    0.66    0.28
   2   6 -11    0.14    0.27
  -2  -6  11    0.14    0.21
  -2  -6  10   21.16    0.93
   2   6 -10   18.37    0.79
  -2  -6  10   20.71    0.88
   2   6 -10   19.09    0.84
   2   6 -10   17.72    0.80
  -2  -6  10   23.06    0.84
   2   6 -10   18.35    0.81
  -2  -6   9   10.21    0.66
   2   6  -9    9.42    0.65
  -2  -6   9   10.52    0.74
  -2  -6   9    9.09    0.75
   2   6  -9   10.00    0.70
   2   6  -9    9.57    0.70
   2   6  -9    9.11    0.67
  -2  -6   9    8.48    0.63
  -2  -6   8   31.88    1.21
   2   6  -8   29.47    1.13
  -2  -6   8   29.24    1.25
  -2  -6   8   30.25    1.25
   2   6  -8   29.94    1.19
   2   6  -8   29.36    1.20
  -2  -6   8   29.84    1.04
  -2  -6   8   30.24    1.17
  -2  -6   7    0.89    0.46
   2   6  -7    1.11    0.43
  -2  -6   7    1.39    0.48
  -2  -6   7    1.18    0.41
   2   6  -7    1.43    0.37
  -2  -6   7    0.75    0.33
   2   6  -7    1.71    0.97
   2   6  -7    1.34    0.47
   2   6  -7    1.78    0.79
  -2  -6   7    1.28    0.47
  -2  -6   6  112.82    2.44
   2   6  -6  114.44    2.26
   2   6  -6  110.74    4.48
  -2  -6   6  107.90    2.43
   2   6  -6  117.80    4.42
  -2  -6   6  114.15    2.47
   2   6  -6  112.63    2.31
   2   6  -6  117.12    2.45
  -2  -6   6  109.81    2.17
  -2  -6   6  116.43    2.39
   2   6  -6  116.15    4.59
  -2  -6   5  687.62   12.50
  -2  -6   5  646.46    6.63
  -2  -6   5  630.20   12.54
   2   6  -5  669.28   11.32
  -2  -6   5  632.27    6.58
  -2  -6   5  663.85    6.61
   2   6  -5  671.22    6.33
   2   6  -5  699.36   11.44
   2   6  -5  698.13    6.62
   2   6  -5  687.84   10.96
  -2  -6   5  647.37    6.09
  -2  -6   5  677.19    6.49
   2   6  -4  350.44    7.51
  -2  -6   4  318.79    4.26
  -2  -6   4  318.87    8.36
  -2  -6   4  339.58    4.28
   2   6  -4  340.70    7.71
  -2  -6   4  321.03    4.24
   2   6  -4  332.59    4.03
   2   6  -4  350.17    7.67
   2   6  -4  343.02    4.25
  -2  -6   4  326.12    3.89
  -2  -6   4  342.07    4.18
  -2  -6   3   72.92    3.72
   2   6  -3   89.14    3.72
   2   6  -3   79.11    1.74
   2   6  -3   84.46    1.93
  -2  -6   2    1.36    0.80
   2   6  -2    1.91    0.74
   2   6  -2    1.85    0.35
   2   6  -2    1.49    0.39
   2   6  -2    1.57    0.47
  -2  -6   1   19.56    1.81
   2   6  -1   20.36    1.73
   2   6  -1   18.47    0.87
   2   6  -1   18.48    1.36
   2   6  -1   17.19    1.31
   2   6   0    2.64    0.79
  -2  -6   0    2.30    0.81
   2   6   0    2.63    0.79
   2   6   0    2.35    0.39
   2   6   0    1.61    0.48
   2   6   0    2.02    0.51
  -2  -6  -1   11.01    1.32
   2   6   1   11.28    1.06
   2   6   1   11.03    1.25
   2   6   1   11.61    0.67
   2   6   1   11.86    1.31
   2   6   1   11.89    0.71
   2   6   2   12.44    1.33
   2   6   2   11.71    1.06
  -2  -6  -2   14.23    1.43
   2   6   2   13.71    1.39
  -2  -6  -2   14.19    1.26
   2   6   2   13.18    0.72
  -2  -6  -3  408.24    7.35
   2   6   3  430.95    7.68
   2   6   3  406.82    4.32
   2   6   3  406.41    7.51
   2   6   3  406.36    6.26
   2   6   3  411.64    4.38
  -2  -6  -4  225.49    5.32
   2   6   4  222.07    3.04
   2   6   4  223.39    4.58
   2   6   4  224.29    4.56
   2   6   4  215.67    3.07
   2   6   5    5.76    0.52
   2   6   5    5.53    0.80
   2   6   5    5.45    0.50
   2   6   5    5.63    0.80
  -2  -6  -5    5.89    1.00
   2   6   6   57.49    1.23
   2   6   6   56.72    1.46
  -2  -6  -6   59.82    3.04
   2   6   7  299.09    3.16
   2   6   7  281.50    3.83
  -2  -6  -7  269.22    3.39
   2   6   7  283.19    3.41
   2   6   7  282.23    3.59
  -2  -6  -7  296.83    3.87
  -2  -6  -7  278.95    3.74
  -2  -6  -7  291.45    3.90
  -2  -6  -7  285.30    6.95
   2   6   7  283.92    3.66
   2   6   7  279.98    3.84
  -2  -6  -8   21.04    0.97
  -2  -6  -8   22.07    0.96
   2   6   8   21.27    1.03
   2   6   8   20.42    0.90
   2   6   8   19.98    0.97
  -2  -6  -8   21.10    1.01
  -2  -6  -8   21.21    1.03
  -2  -6  -8   20.30    1.00
  -2  -6  -8   22.02    2.01
   2   6   8   20.68    0.91
   2   6   8   20.91    0.97
  -2  -6  -9    1.51    0.38
   2   6   9    1.66    0.42
   2   6   9    0.20    0.36
  -2  -6  -9    1.35    0.41
   2   6   9    1.69    0.40
  -2  -6  -9    1.24    0.40
  -2  -6  -9    1.47    0.40
  -2  -6  -9    2.00    0.44
  -2  -6  -9    1.16    0.74
   2   6   9    0.79    0.36
   2   6   9    2.12    0.45
  -2  -6 -10  104.20    2.27
   2   6  10  106.34    2.40
   2   6  10  107.44    2.04
  -2  -6 -10  111.52    2.23
  -2  -6 -10  111.38    2.27
  -2  -6 -10  114.93    2.29
   2   6  10  105.80    2.12
   2   6  10  107.68    2.33
  -2  -6 -11  105.97    2.21
  -2  -6 -11  107.37    2.26
   2   6  11  102.90    1.97
  -2  -6 -11  110.11    2.19
  -2  -6 -11  108.54    2.14
   2   6  11  107.10    2.39
  -2  -6 -12    9.53    0.70
   2   6  12    9.31    0.73
  -2  -6 -12    8.79    0.71
  -2  -6 -12    8.80    0.67
   2   6  12    8.68    0.74
   2   6  12    9.38    0.79
  -2  -6 -13   61.45    1.54
   2   6  13   60.80    1.60
  -2  -6 -13   60.19    1.46
   2   6  13   61.30    1.55
   2   6  13   57.15    1.57
   2   6  14    0.04    0.28
   2   6  14    0.31    0.35
  -2  -6 -14    0.18    0.29
   2   6  14   -0.19    0.29
   2   6  14    0.34    0.31
   2   6  14    0.02    0.29
   2   6  14   -0.17    0.42
  -2  -6 -15   -0.10    0.25
   2   6  15   -0.20    0.27
   2   6  15    0.18    0.23
   2   6  15   -0.20    0.32
   2   6  15    0.08    0.22
   2   6  15    0.02    0.36
  -2  -6 -15   -0.03    0.25
   2   7 -11   31.36    0.72
   2   7 -10    0.41    0.29
   2   7 -10    0.86    0.33
  -2  -7  10    0.46    0.33
   2   7 -10    0.20    0.25
  -2  -7  10    0.07    0.25
  -2  -7   9   32.47    0.93
   2   7  -9   32.79    1.06
  -2  -7   9   31.32    0.99
  -2  -7   9   35.86    1.11
   2   7  -9   29.09    0.98
  -2  -7   9   29.68    0.81
   2   7  -9   32.43    0.99
  -2  -7   9   33.29    1.09
   2   7  -8   91.19    1.92
  -2  -7   8   99.72    1.95
   2   7  -8   97.31    1.99
  -2  -7   8  101.05    2.09
   2   7  -8   92.18    1.84
   2   7  -8   93.24    1.84
  -2  -7   8   89.90    1.67
  -2  -7   8   99.54    2.06
  -2  -7   8   96.91    1.94
  -2  -7   7    5.26    0.57
   2   7  -7    5.39    0.54
  -2  -7   7    5.65    0.64
  -2  -7   7    6.21    0.55
  -2  -7   7    5.39    0.64
   2   7  -7    5.59    0.55
   2   7  -7    5.45    0.60
  -2  -7   7    6.34    0.50
  -2  -7   7    5.86    0.54
  -2  -7   7    5.13    0.63
  -2  -7   6  131.51    2.62
  -2  -7   6  137.42    2.58
  -2  -7   6  127.66    2.62
  -2  -7   6  129.31    2.59
   2   7  -6  123.53    2.33
   2   7  -6  126.68    2.34
   2   7  -6  132.58    2.57
  -2  -7   6  122.41    2.16
  -2  -7   6  127.23    2.30
  -2  -7   6  132.32    2.55
  -2  -7   5  204.22    3.40
  -2  -7   5  218.38    3.47
  -2  -7   5  206.00    3.45
   2   7  -5  206.43    3.11
  -2  -7   5  211.47    3.39
   2   7  -5  210.78    3.10
   2   7  -5  224.18    3.45
  -2  -7   5  204.94    2.94
  -2  -7   5  210.78    3.10
  -2  -7   5  215.12    3.35
   2   7  -4  956.30    8.29
  -2  -7   4  877.65    8.28
   2   7  -4  905.06    7.70
   2   7  -4  929.69   13.69
  -2  -7   4  921.36    8.39
   2   7  -4  934.01    7.73
  -2  -7   4  905.65    7.57
  -2  -7   4  911.54    7.80
  -2  -7   4  930.20    8.18
  -2  -7   4  937.14    8.30
  -2  -7   3   16.41    0.98
  -2  -7   3   15.11    1.96
   2   7  -3   15.16    0.89
   2   7  -3   13.97    1.66
  -2  -7   3   14.65    0.93
  -2  -7   3   15.07    0.93
  -2  -7   3   15.20    0.91
   2   7  -3   16.46    0.94
  -2  -7   3   15.22    1.85
  -2  -7   3   13.86    0.76
  -2  -7   3   15.61    0.88
  -2  -7   2   10.96    0.79
  -2  -7   2   11.50    1.66
   2   7  -2   11.31    0.79
   2   7  -2   11.25    0.74
   2   7  -2   10.68    1.44
  -2  -7   2   11.84    0.83
  -2  -7   2   10.71    0.76
   2   7  -2   10.39    1.16
  -2  -7   2   10.67    0.67
  -2  -7   2   10.77    0.73
  -2  -7   2   10.63    0.77
  -2  -7   2   10.15    0.70
  -2  -7   1  189.06    2.78
   2   7  -1  195.89    5.65
  -2  -7   1  191.63    3.17
  -2  -7   1  198.04    6.21
   2   7  -1  202.08    3.17
  -2  -7   1  193.08    3.23
   2   7  -1  204.69    5.81
  -2  -7   1  191.56    3.12
  -2  -7   1  186.18    3.06
   2   7  -1  194.89    3.02
   2   7  -1  193.11    4.86
  -2  -7   1  191.84    3.04
  -2  -7   1  190.74    2.89
  -2  -7   1  179.24    2.98
  -2  -7   0   14.50    0.86
  -2  -7   0   15.61    0.89
  -2  -7   0   13.92    0.84
  -2  -7   0   16.56    1.85
   2   7   0   15.04    1.32
  -2  -7   0   16.49    0.93
   2   7   0   16.11    1.67
  -2  -7   0   15.18    0.87
  -2  -7   0   15.26    0.84
   2   7   0   15.44    0.85
   2   7   0   16.00    1.37
  -2  -7   0   15.46    0.77
  -2  -7   0   16.00    0.89
  -2  -7   0   16.58    0.83
   2   7   0   17.65    1.75
   2   7   0   15.99    0.90
   2   7   1   11.67    0.73
  -2  -7  -1   10.78    1.52
  -2  -7  -1   15.04    0.87
   2   7   1   12.44    1.46
   2   7   1   12.46    1.49
   2   7   1   11.60    0.77
   2   7   2    8.49    0.66
  -2  -7  -2    7.79    1.24
  -2  -7  -2    7.35    1.21
   2   7   2    9.49    1.37
   2   7   2    8.98    1.07
   2   7   2    8.49    1.24
   2   7   3   37.66    2.44
  -2  -7  -3   36.18    2.42
  -2  -7  -3   37.27    2.57
   2   7   3   39.02    2.49
   2   7   3   35.99    1.95
   2   7   3   36.24    1.25
  -2  -7  -3   36.97    1.32
   2   7   3   34.46    1.94
   2   7   3   38.28    1.31
   2   7   4  480.24    5.08
  -2  -7  -4  419.73    8.06
  -2  -7  -4  463.01    8.73
  -2  -7  -4  452.39    4.98
   2   7   4  470.57    5.00
   2   7   4  475.89    7.46
  -2  -7  -4  429.72    4.93
   2   7   4  499.77    7.60
  -2  -7  -4  471.99    5.17
  -2  -7  -4  415.12    4.93
   2   7   4  487.69    5.11
   2   7   5  958.96    8.12
  -2  -7  -5  902.28   12.51
   2   7   5  958.59    8.08
   2   7   5  990.18   11.44
   2   7   5  991.17    8.30
  -2  -7  -5  960.39    8.19
   2   7   5  938.78    7.81
  -2  -7  -5  936.37    8.20
  -2  -7  -5  864.40    8.03
  -2  -7  -5  829.57   12.42
  -2  -7  -6  111.73    2.31
   2   7   6  107.45    2.26
   2   7   6  109.57    1.84
   2   7   6  107.23    2.24
   2   7   6  112.29    2.34
  -2  -7  -6   99.75    4.15
  -2  -7  -6  113.43    2.37
   2   7   6  109.59    2.19
  -2  -7  -6  100.06    2.13
  -2  -7  -6  106.35    2.34
   2   7   7    7.54    0.53
   2   7   7    7.80    0.67
   2   7   7    6.75    0.67
  -2  -7  -7    5.44    1.05
   2   7   7    7.40    0.58
   2   7   7    7.44    0.65
  -2  -7  -7    6.85    0.66
  -2  -7  -7    6.67    0.62
  -2  -7  -7    7.05    0.68
  -2  -7  -7    6.99    0.64
   2   7   7    7.12    0.62
  -2  -7  -8   10.84    0.73
   2   7   8   11.88    0.80
   2   7   8   12.18    0.73
   2   7   8   11.10    0.79
  -2  -7  -8   12.13    0.85
  -2  -7  -8   11.16    0.74
   2   7   8   11.41    0.73
   2   7   8   12.98    0.81
  -2  -7  -8   11.60    0.83
  -2  -7  -9   64.71    1.71
   2   7   9   67.68    1.86
   2   7   9   67.80    1.59
   2   7   9   64.78    1.64
  -2  -7  -9   69.44    1.88
   2   7   9   66.89    1.67
   2   7   9   66.01    1.77
  -2  -7 -10  137.91    2.44
  -2  -7 -10  139.28    2.56
   2   7  10  144.69    2.71
   2   7  10  140.64    2.31
   2   7  10  137.61    2.42
  -2  -7 -10  149.30    2.69
   2   7  10  142.05    2.45
   2   7  10  144.60    2.68
  -2  -7 -11   62.54    1.59
  -2  -7 -11   61.21    1.64
   2   7  11   60.34    1.44
  -2  -7 -11   62.75    1.62
   2   7  11   60.93    1.73
  -2  -7 -12  113.98    2.07
   2   7  12  110.84    1.85
  -2  -7 -12  114.33    2.01
  -2  -7 -12  114.10    1.96
   2   7  12  118.01    2.22
   2   7  12  119.76    2.19
   2   7  12  111.52    2.19
   2   7  13   37.43    1.12
   2   7  13   39.60    1.19
  -2  -7 -13   37.57    1.01
   2   7  13   39.36    1.12
   2   7  14    4.42    0.38
  -2  -7 -14    4.54    0.37
  -2  -7 -14    4.39    0.34
   2   7  14    4.33    0.45
   2   7  14    5.07    0.41
   2   7  14    4.35    0.37
   2   7  14    4.94    0.49
  -2  -7 -14    4.89    0.44
  -2  -7 -15   20.73    0.58
   2   7  15   19.26    0.55
   2   7  15   20.47    0.63
   2   7  15   20.49    0.65
   2   8  -9   24.21    0.74
   2   8  -9   24.87    0.69
   2   8  -9   22.88    0.60
  -2  -8   9   27.77    0.79
  -2  -8   9   25.59    0.72
  -2  -8   9   27.54    0.81
  -2  -8   8  153.56    2.13
  -2  -8   8  153.24    2.03
   2   8  -8  146.35    2.17
   2   8  -8  145.27    2.04
  -2  -8   8  152.71    2.19
   2   8  -7   72.77    1.44
  -2  -8   7   80.62    1.74
  -2  -8   7   81.64    1.71
   2   8  -7   78.17    1.72
   2   8  -7   76.61    1.60
   2   8  -7   75.68    1.65
  -2  -8   7   74.88    1.46
  -2  -8   7   80.26    1.69
   2   8  -6   96.72    3.79
   2   8  -6  108.39    1.88
   2   8  -6  109.96    2.08
   2   8  -6  115.65    2.25
  -2  -8   6  122.33    2.22
  -2  -8   6  118.82    2.33
   2   8  -6  113.61    2.19
  -2  -8   6  114.31    2.22
  -2  -8   6  118.71    2.30
  -2  -8   6  107.07    1.83
  -2  -8   6  117.68    2.03
  -2  -8   6  114.52    2.22
  -2  -8   5  153.96    2.82
   2   8  -5  150.70    2.57
   2   8  -5  152.87    2.74
  -2  -8   5  155.78    2.77
  -2  -8   5  154.97    2.83
  -2  -8   5  153.68    2.71
   2   8  -5  155.35    2.69
  -2  -8   5  149.61    2.33
  -2  -8   5  155.45    2.51
  -2  -8   5  154.51    2.72
  -2  -8   4    1.27    0.51
   2   8  -4    1.68    0.82
  -2  -8   4    1.89    0.54
   2   8  -4    1.47    0.40
  -2  -8   4    2.17    0.52
   2   8  -4    1.57    0.43
  -2  -8   4    1.78    0.50
   2   8  -4    1.38    0.51
  -2  -8   4    2.38    0.62
  -2  -8   4    1.87    0.40
  -2  -8   4    1.58    0.46
  -2  -8   3   34.99    1.41
  -2  -8   3   36.10    1.36
   2   8  -3   36.96    1.38
   2   8  -3   37.11    1.27
  -2  -8   3   35.96    1.43
  -2  -8   3   37.01    1.44
   2   8  -3   37.89    1.37
  -2  -8   3   36.23    1.20
  -2  -8   3   36.27    1.28
  -2  -8   3   36.79    1.38
   2   8  -3   36.80    2.58
   2   8  -2    1.33    0.79
  -2  -8   2    0.45    0.44
  -2  -8   2    1.27    0.51
  -2  -8   2    0.53    0.42
   2   8  -2    0.63    0.36
   2   8  -2    0.67    0.42
  -2  -8   2    0.58    0.34
  -2  -8   2    0.80    0.44
  -2  -8   2    0.64    0.36
  -2  -8   2    1.05    0.45
  -2  -8   1  575.46    6.22
   2   8  -1  601.64    5.94
   2   8  -1  592.56   10.48
   2   8  -1  586.74    5.97
  -2  -8   1  575.93    6.30
   2   8  -1  596.26   10.66
  -2  -8   1  583.58    5.58
  -2  -8   1  550.57    5.89
  -2  -8   1  582.00    5.77
  -2  -8   1  566.31    5.92
  -2  -8   1  579.69    6.12
   2   8  -1  613.23    6.27
  -2  -8   0   65.13    1.76
  -2  -8   0   66.37    1.88
  -2  -8   0   64.18    1.79
   2   8   0   67.54    1.75
  -2  -8   0   69.38    1.97
   2   8   0   65.76    3.43
   2   8   0   70.44    3.52
  -2  -8   0   66.97    1.83
  -2  -8   0   59.62    1.76
   2   8   0   69.73    1.89
   2   8   1    5.13    1.13
  -2  -8  -1    6.78    0.68
   2   8   1    5.24    0.59
  -2  -8  -1    5.99    0.66
   2   8   1    5.91    1.17
  -2  -8  -1    4.95    0.57
  -2  -8  -1    4.98    0.60
   2   8   1    5.71    0.96
   2   8   1    5.50    0.61
  -2  -8  -1    5.46    0.59
   2   8   2    0.97    0.72
   2   8   2    1.24    0.38
  -2  -8  -2    1.40    0.43
  -2  -8  -2   -0.08    0.88
  -2  -8  -2    2.01    0.44
   2   8   2    1.73    0.38
   2   8   2    0.76    0.35
  -2  -8  -2    0.88    0.34
  -2  -8  -2    2.89    0.54
   2   8   2    0.31    0.58
  -2  -8  -2    1.88    0.44
   2   8   2    0.63    0.47
   2   8   2    0.82    0.36
   2   8   3  190.57    5.78
   2   8   3  190.78    4.84
   2   8   3  191.24    3.10
  -2  -8  -3  187.49    6.16
   2   8   3  188.05    3.00
   2   8   3  185.36    3.05
  -2  -8  -3  187.69    3.19
   2   8   3  186.96    4.84
  -2  -8  -3  177.47    3.13
   2   8   3  190.62    3.09
  -2  -8  -3  180.83    2.97
   2   8   4  493.21    5.34
  -2  -8  -4  493.19    5.44
   2   8   4  491.22    5.33
   2   8   4  493.22    8.07
  -2  -8  -4  486.84    5.53
   2   8   4  496.85    5.52
   2   8   5  168.50    2.90
   2   8   5  173.17    3.01
   2   8   5  169.76    4.60
  -2  -8  -5  159.70    2.94
   2   8   5  165.99    2.81
  -2  -8  -5  182.81    3.15
   2   8   5  171.85    2.93
   2   8   6  297.21    3.96
   2   8   6  304.30    3.42
   2   8   6  306.64    4.12
  -2  -8  -6  302.36    4.21
   2   8   6  303.34    3.94
  -2  -8  -6  306.59    4.17
   2   8   7  113.03    1.94
   2   8   7  114.42    2.35
   2   8   7  113.32    2.41
   2   8   7  110.72    2.08
   2   8   7  110.34    2.28
  -2  -8  -7  114.69    2.48
  -2  -8  -7  111.48    2.37
   2   8   7  112.57    2.28
   2   8   8   35.01    1.28
   2   8   8   35.01    1.18
   2   8   8   33.66    1.29
  -2  -8  -8   35.52    1.40
  -2  -8  -8   33.51    1.27
   2   8   8   34.40    1.19
   2   8   8   35.65    1.29
   2   8   9    2.19    0.44
   2   8   9    2.50    0.41
   2   8   9    2.15    0.44
  -2  -8  -9    1.59    0.49
  -2  -8  -9    1.87    0.43
   2   8   9    1.82    0.42
   2   8   9    1.65    0.45
   2   8  10   30.58    1.15
   2   8  10   28.66    0.99
  -2  -8 -10   31.85    1.24
   2   8  10   29.47    1.07
   2   8  10   30.52    1.08
   2   8  10   30.94    1.22
   2   8  11   43.25    1.13
   2   8  11   44.97    1.31
  -2  -8 -11   47.12    1.37
   2   8  12    0.48    0.28
   2   8  12    0.24    0.25
  -2  -8 -12    0.48    0.28
   2   8  12    0.07    0.29
   2   8  12    0.54    0.37
   2   8  13   12.59    0.65
   2   8  13   11.73    0.54
  -2  -8 -13   10.67    0.48
   2   8  13   11.08    0.61
  -2  -8 -13   12.72    0.64
   2   8  14    5.27    0.43
  -2  -8 -14    4.95    0.35
   2   8  14    5.15    0.36
  -2  -8 -14    5.24    0.41
   2   8  14    4.73    0.39
  -2  -9   8  191.26    1.93
   2   9  -7   20.37    0.65
   2   9  -7   22.07    0.75
  -2  -9   7   25.25    0.75
  -2  -9   7   24.16    0.79
   2   9  -7   21.26    0.72
   2   9  -6    5.58    0.48
   2   9  -6    4.61    0.42
   2   9  -6    4.77    0.37
  -2  -9   6    6.19    0.49
  -2  -9   6    5.38    0.50
  -2  -9   6    7.05    0.53
  -2  -9   5   46.75    1.35
   2   9  -5   40.07    1.16
  -2  -9   5   49.44    1.31
  -2  -9   5   45.91    1.32
   2   9  -5   44.50    1.25
  -2  -9   5   50.53    1.31
  -2  -9   5   46.45    1.31
   2   9  -5   43.25    1.27
  -2  -9   4   18.34    0.92
  -2  -9   4   18.43    0.95
   2   9  -4   16.56    0.80
   2   9  -4   17.51    0.85
  -2  -9   4   18.89    0.94
  -2  -9   4   18.78    0.90
  -2  -9   4   18.23    0.90
   2   9  -4   17.34    0.90
  -2  -9   3    0.96    0.36
   2   9  -3    1.08    0.64
  -2  -9   3    0.97    0.45
  -2  -9   3    1.01    0.42
  -2  -9   3    1.29    0.45
   2   9  -3    0.44    0.29
  -2  -9   3    0.70    0.38
   2   9  -3    0.72    0.36
  -2  -9   3    0.98    0.43
   2   9  -3    1.03    0.44
   2   9  -2    1.10    0.66
  -2  -9   2    0.68    0.45
   2   9  -2    0.52    0.38
  -2  -9   2    0.42    0.41
   2   9  -2    0.54    0.30
  -2  -9   2    0.20    0.37
  -2  -9   2    0.58    0.41
  -2  -9   2    0.78    0.41
   2   9  -2    0.14    0.38
   2   9  -1  530.93    9.81
  -2  -9   1  521.65    5.86
   2   9  -1  539.39    5.66
  -2  -9   1  536.32    5.57
  -2  -9   1  521.51    5.94
  -2  -9   1  513.62    5.50
  -2  -9   1  531.88    5.60
  -2  -9   0   16.59    1.01
   2   9   0   16.79    0.93
  -2  -9   0   15.16    0.92
  -2  -9   0   17.00    1.05
   2   9   0   15.75    1.77
  -2  -9   0   16.14    0.94
   2   9   0   17.01    0.95
  -2  -9  -1  118.57    2.39
   2   9   1  124.57    2.48
  -2  -9  -1  118.79    2.54
   2   9   1  124.81    2.40
  -2  -9  -1  125.19    2.66
   2   9   1  126.13    2.46
   2   9   1  125.30    4.68
   2   9   1  122.50    2.47
   2   9   2   60.73    1.70
  -2  -9  -2   58.02    1.61
   2   9   2   60.40    1.63
  -2  -9  -2   61.21    1.85
   2   9   2   57.56    1.69
   2   9   2   55.59    2.69
  -2  -9  -2   56.02    1.75
   2   9   2   62.83    3.33
   2   9   2   59.63    1.69
   2   9   3  176.58    2.93
  -2  -9  -3  169.24    3.10
  -2  -9  -3  177.46    3.12
   2   9   3  179.60    3.08
  -2  -9  -3  166.33    2.85
   2   9   3  173.25    4.66
   2   9   3  174.35    2.96
   2   9   4   83.96    1.98
   2   9   4   83.92    2.00
   2   9   4   86.10    2.09
  -2  -9  -4   77.80    1.95
   2   9   4   84.37    1.97
  -2  -9  -4   84.99    2.14
   2   9   5  110.97    2.26
   2   9   5  116.33    2.36
   2   9   5  113.28    2.36
   2   9   5  110.68    2.26
  -2  -9  -5  113.80    2.49
   2   9   6  284.71    3.71
   2   9   6  252.12    3.05
   2   9   6  260.37    3.56
  -2  -9  -6  249.75    3.74
  -2  -9  -6  262.26    3.83
   2   9   6  262.12    3.57
   2   9   6  272.84    3.75
  -2  -9  -7   19.71    1.01
   2   9   7   18.65    0.95
   2   9   7   19.51    0.93
   2   9   7   19.07    0.85
  -2  -9  -7   18.74    1.01
  -2  -9  -7   19.67    0.85
   2   9   7   19.76    0.98
   2   9   7   19.60    0.96
   2   9   8    6.96    0.59
   2   9   8    7.03    0.57
  -2  -9  -8    6.97    0.69
  -2  -9  -8    6.50    0.62
   2   9   8    7.06    0.59
   2   9   8    7.14    0.64
   2   9   9   23.79    0.87
  -2  -9  -9   21.89    0.93
   2   9   9   23.73    0.95
   2   9   9   22.50    0.89
  -2  -9  -9   24.86    1.10
   2   9   9   22.36    0.90
   2   9   9   22.75    1.02
  -2  -9 -10   16.55    0.86
   2   9  10   14.75    0.72
   2   9  10   15.75    0.73
   2   9  10   14.76    0.67
   2   9  10   14.21    0.71
   2   9  10   14.37    0.80
  -2  -9 -10   15.57    0.77
  -2  -9 -11   45.48    1.22
  -2  -9 -11   43.58    1.14
  -2  -9 -12   27.22    0.87
   2   9  12   24.18    0.70
   2   9  12   26.95    0.85
  -2  -9 -12   25.00    0.79
  -2  -9 -12   26.17    0.81
   2   9  12   22.42    0.73
  -2  -9 -13    1.94    0.33
   2   9  13    1.66    0.28
   2   9  13    1.83    0.33
  -2  -9 -13    1.42    0.31
   2  10  -5   10.16    0.54
   2  10  -5   11.17    0.50
   2  10  -4    3.28    0.35
  -2 -10   4    3.63    0.39
   2  10  -4    2.84    0.36
  -2 -10   4    4.19    0.37
   2  10  -4    3.25    0.36
  -2 -10   3    0.54    0.29
   2  10  -3    0.61    0.26
  -2 -10   3    0.84    0.27
   2  10  -3    0.70    0.30
   2  10  -3    0.68    0.29
  -2 -10   2    4.32    0.47
  -2 -10   2    4.48    0.46
   2  10  -2    4.10    0.48
   2  10  -2    4.10    0.43
  -2 -10   2    4.67    0.53
   2  10  -2    4.46    0.47
   2  10  -2    4.39    0.48
  -2 -10   1   13.73    0.72
   2  10  -1   12.20    0.68
  -2 -10   1   13.35    0.84
  -2 -10   1   13.08    0.71
   2  10  -1   13.13    0.75
  -2 -10   1   13.48    0.76
   2  10  -1   12.95    0.75
   2  10  -1   12.66    0.73
   2  10   0  196.52    2.89
  -2 -10   0  205.15    3.19
   2  10   0  196.55    2.90
  -2 -10   0  199.32    2.93
  -2 -10   0  204.63    2.95
  -2 -10   0  197.35    2.79
   2  10   0  199.37    2.86
   2  10   1    0.25    0.30
   2  10   1    0.45    0.27
  -2 -10  -1    0.00    0.45
   2  10   1    0.23    0.35
  -2 -10  -1   -0.09    0.36
   2  10   1    0.51    0.31
  -2 -10  -2    0.65    0.48
   2  10   2    1.06    0.36
   2  10   2    1.24    0.39
   2  10   2    1.17    0.43
  -2 -10  -2    1.76    0.47
   2  10   3   27.52    1.04
   2  10   3   27.41    1.08
   2  10   3   28.63    1.14
   2  10   3   27.64    1.08
  -2 -10  -3   25.80    1.16
   2  10   4   25.90    1.00
   2  10   4   27.25    1.07
   2  10   4   26.18    1.09
  -2 -10  -4   26.35    1.03
   2  10   4   26.36    1.05
  -2 -10  -4   25.29    1.15
  -2 -10  -4   25.91    1.09
  -2 -10  -4   25.64    0.97
   2  10   5    0.11    0.29
   2  10   5    0.01    0.35
  -2 -10  -5    0.20    0.28
   2  10   5    0.34    0.29
  -2 -10  -5   -0.24    0.38
   2  10   5   -0.06    0.35
  -2 -10  -5    0.16    0.33
  -2 -10  -5    0.31    0.43
   2  10   5   -0.30    0.39
  -2 -10  -6   16.71    0.93
   2  10   6   16.69    0.79
   2  10   6   16.49    0.84
  -2 -10  -6   16.12    0.78
   2  10   6   16.74    0.74
  -2 -10  -6   16.37    0.88
   2  10   6   16.14    0.83
   2  10   6   16.82    0.84
   2  10   7  123.76    2.04
  -2 -10  -7  123.16    2.29
  -2 -10  -7  123.41    2.27
   2  10   7  119.09    1.90
   2  10   7  118.67    2.13
  -2 -10  -7  118.32    1.88
   2  10   7  121.55    1.99
   2  10   7  124.45    2.15
  -2 -10  -8   -0.13    0.35
   2  10   8   -0.09    0.32
   2  10   8    0.06    0.30
   2  10   8    0.08    0.26
  -2 -10  -8    0.27    0.33
   2  10   8    0.37    0.36
  -2 -10  -9   12.73    0.72
   2  10   9   12.19    0.56
   2  10   9   12.35    0.61
   2  10   9   12.38    0.62
   2  10   9   12.23    0.67
   2  10  10   13.47    0.51
  -2 -10 -10   14.40    0.66
  -2 -10 -10   12.23    0.50
   2  10  10   13.93    0.59
  -2 -10 -10   14.83    0.70
  -2 -10 -11   33.55    0.86
  -2 -10 -11   32.93    0.88
   2  10  11   32.57    0.86
   2  10  12   32.36    0.70
  -2 -10 -12   32.87    0.71
   2  11  -3    2.66    0.31
  -2 -11   3    3.13    0.33
   2  11  -2    0.86    0.26
   2  11  -2    1.22    0.31
  -2 -11   2    0.87    0.30
   2  11  -1    5.59    0.41
   2  11  -1    5.75    0.45
   2  11  -1    5.38    0.41
  -2 -11   1    6.43    0.44
  -2 -11   1    5.95    0.46
  -2 -11   0   50.58    1.07
   2  11   0   49.34    1.10
   2  11   0   49.25    1.14
   2  11   0   52.40    1.20
  -2 -11   0   55.08    1.21
  -2 -11   0   54.07    1.19
   2  11   1    4.98    0.42
   2  11   1    5.33    0.44
   2  11   1    5.85    0.48
   2  11   1    5.75    0.46
  -2 -11  -1    5.59    0.46
  -2 -11  -1    5.86    0.49
  -2 -11  -1    5.40    0.50
   2  11   2   14.86    0.64
   2  11   2   14.84    0.67
   2  11   2   14.14    0.67
   2  11   2   14.86    0.70
  -2 -11  -2   13.83    0.71
  -2 -11  -2   15.00    0.73
  -2 -11  -2   14.52    0.68
   2  11   3   44.60    1.08
   2  11   3   44.69    1.16
   2  11   3   45.82    1.18
  -2 -11  -3   43.44    1.25
  -2 -11  -3   45.95    1.20
  -2 -11  -3   46.00    1.12
   2  11   4   78.55    1.42
  -2 -11  -4   78.42    1.69
   2  11   4   76.26    1.51
   2  11   4   77.70    1.52
  -2 -11  -4   77.98    1.52
  -2 -11  -4   76.95    1.39
   2  11   4   78.10    1.51
   2  11   5    0.43    0.22
   2  11   5    0.56    0.28
   2  11   5    0.95    0.28
   2  11   5    0.91    0.31
  -2 -11  -5    0.55    0.24
  -2 -11  -5    0.37    0.29
  -2 -11  -5    0.37    0.23
  -2 -11  -5    0.64    0.37
   2  11   5    0.69    0.32
  -2 -11  -6   32.17    1.03
   2  11   6   30.11    0.81
  -2 -11  -6   27.86    0.87
   2  11   6   30.09    0.92
  -2 -11  -6   28.92    0.82
   2  11   6   30.50    0.85
   2  11   6   31.54    0.93
  -2 -11  -7   31.00    0.92
   2  11   7   33.77    0.83
   2  11   7   34.22    0.93
   2  11   7   33.52    0.85
   2  11   8    3.14    0.38
   2  11   8    2.31    0.28
   2  11   8    2.73    0.31
  -2 -11  -8    2.65    0.36
   2  11   8    2.85    0.34
  -2 -11  -9    0.02    0.28
   2  11   9   -0.08    0.24
   2  12   2    6.24    0.34
  -2 -12  -3   58.57    0.97
   2  12   3   58.80    0.94
  -2 -12  -4   25.49    0.60
   2  12   4   28.61    0.66
  -2 -12  -5   -0.04    0.26
   2  12   5   -0.02    0.23
   3 -10  -9    0.83    0.24
  -3  10   9    2.83    0.32
   3 -10  -8    0.21    0.22
   3 -10  -8   -0.06    0.28
   3 -10  -8    0.50    0.28
   3 -10  -7   26.02    0.67
   3 -10  -7   20.01    0.61
   3 -10  -6   21.05    0.65
   3 -10  -6   17.50    0.63
   3 -10  -5    0.48    0.33
   3 -10  -5    0.41    0.26
   3 -10  -5    0.72    0.24
   3 -10  -4    5.58    0.43
   3 -10  -4    5.80    0.45
   3 -10  -4    5.08    0.43
   3 -10  -4    5.29    0.46
   3 -10  -3   27.41    0.79
   3 -10  -3   28.84    0.80
   3 -10  -3   26.65    0.87
   3 -10  -2   25.38    0.73
   3 -10  -2   23.53    0.74
   3 -10  -1   27.14    0.76
   3 -10  -1   24.93    0.67
   3 -10   0   64.53    1.15
   3 -10   0   65.94    1.27
   3 -10   1   51.51    0.83
   3 -10   1   66.02    1.13
   3 -10   2   10.47    0.50
   3 -10   2   21.78    0.83
   3 -10   3    1.41    0.31
   3  -9 -11   32.59    0.65
  -3   9  11   30.43    0.73
  -3   9  10   25.61    0.64
   3  -9 -10   28.61    0.74
   3  -9  -9    2.72    0.39
  -3   9   9    2.77    0.49
  -3   9   9    2.78    0.33
   3  -9  -9    2.31    0.36
  -3   9   8   11.33    0.55
   3  -9  -8   10.65    0.62
  -3   9   7  292.55    2.97
   3  -9  -7  268.85    3.02
   3  -9  -7  269.19    2.70
  -3   9   7  277.30    3.14
  -3   9   7  284.10    3.07
   3  -9  -6   45.93    1.10
  -3   9   6   45.55    1.09
  -3   9   6   44.18    1.14
   3  -9  -6   41.04    1.06
   3  -9  -6   38.82    1.09
   3  -9  -5   43.76    1.12
   3  -9  -5   43.52    1.19
  -3   9   5   46.00    1.16
   3  -9  -4    1.86    0.47
   3  -9  -4    2.26    0.49
  -3   9   4    1.68    0.35
   3  -9  -4    1.31    0.38
   3  -9  -3   90.75    1.77
   3  -9  -3   88.00    1.68
   3  -9  -3   90.95    1.58
  -3   9   3   87.99    1.63
   3  -9  -3   92.79    1.56
   3  -9  -3   85.75    1.80
   3  -9  -3   94.89    1.80
   3  -9  -2   20.43    0.92
   3  -9  -2   19.70    0.85
   3  -9  -2   18.71    0.80
   3  -9  -2   21.22    0.99
   3  -9  -2   21.90    0.94
  -3   9   2   18.01    0.77
   3  -9  -2   19.25    0.84
   3  -9  -2   19.71    0.72
   3  -9  -1  415.07    4.17
   3  -9  -1  408.56    4.06
   3  -9  -1  411.14    4.32
   3  -9   0  124.97    1.96
   3  -9   0  143.42    2.19
   3  -9   0  140.66    2.32
   3  -9   0  142.76    2.22
   3  -9   0  130.26    1.93
   3  -9   0  140.09    2.29
   3  -9   1  163.55    2.13
   3  -9   1  177.70    2.46
   3  -9   1  160.72    2.04
   3  -9   1  175.11    2.51
   3  -9   2   -0.39    0.31
   3  -9   2    0.32    0.40
   3  -9   2    0.37    0.35
   3  -9   3   11.65    0.65
   3  -9   3   12.36    0.64
   3  -9   4    4.21    0.46
   3  -9   4    4.01    0.39
   3  -9   5   13.18    0.56
   3  -8 -12   52.11    1.02
  -3   8  12   53.33    1.02
   3  -8 -12   50.35    0.84
   3  -8 -12   53.74    1.08
   3  -8 -11   17.18    0.70
  -3   8  11   16.82    0.63
   3  -8 -11   20.04    0.68
  -3   8  11   19.05    0.76
   3  -8 -11   15.70    0.60
   3  -8 -11   19.12    0.78
   3  -8 -10   21.41    0.83
  -3   8  10   22.34    0.79
   3  -8 -10   25.87    0.98
   3  -8 -10   26.23    0.86
   3  -8 -10   20.05    0.73
   3  -8 -10   23.99    0.95
   3  -8  -9   23.36    0.92
  -3   8   9   28.98    0.93
   3  -8  -9   28.99    1.12
  -3   8   9   19.87    0.88
  -3   8   9   27.45    0.95
   3  -8  -9   30.78    1.02
   3  -8  -9   25.65    1.04
   3  -8  -8    0.89    0.36
  -3   8   8    1.16    0.36
   3  -8  -8    1.11    0.46
  -3   8   8    0.45    0.36
   3  -8  -8    0.40    0.46
   3  -8  -8    0.43    0.40
   3  -8  -7    1.47    0.44
   3  -8  -7    1.57    0.38
  -3   8   7    1.98    0.40
   3  -8  -7    1.10    0.51
  -3   8   7    1.25    0.41
   3  -8  -7    1.36    0.46
   3  -8  -7    1.13    0.43
   3  -8  -6   89.62    1.66
   3  -8  -6   85.02    2.04
   3  -8  -6   86.72    1.67
   3  -8  -6   86.68    1.94
  -3   8   6   92.60    1.81
  -3   8   5   30.76    1.05
   3  -8  -5   29.75    1.06
   3  -8  -5   29.35    1.19
   3  -8  -5   28.92    1.05
   3  -8  -5   28.41    1.10
   3  -8  -4   54.09    1.32
  -3   8   4   56.00    1.40
  -3   8   4   52.39    2.78
   3  -8  -4   60.89    1.55
   3  -8  -4   57.83    1.44
   3  -8  -4   57.83    1.49
  -3   8   3  270.88    3.25
  -3   8   3  264.51    6.23
   3  -8  -3  263.52    3.28
   3  -8  -3  266.30    3.51
  -3   8   3  269.08    6.15
   3  -8  -3  276.03    3.27
   3  -8  -2    1.22    0.49
   3  -8  -2    1.88    0.55
   3  -8  -2    1.02    0.42
  -3   8   2    1.09    0.64
  -3   8   2   -0.13    0.71
  -3   8   2    0.88    0.34
   3  -8  -1    2.64    0.58
   3  -8  -1    2.05    0.49
   3  -8  -1    3.39    0.54
  -3   8   1    1.80    0.73
  -3   8   1    4.53    0.91
   3  -8  -1    2.45    0.56
  -3   8   1    2.10    0.67
   3  -8  -1    2.50    0.40
   3  -8   0  477.82    4.87
   3  -8   0  468.38    4.59
  -3   8   0  457.71    8.13
   3  -8   0  473.37    5.01
   3  -8   0  473.55    4.87
   3  -8   0  474.46    4.99
   3  -8   1  463.24    4.74
   3  -8   1  450.98    4.77
  -3   8  -1  451.16    7.98
   3  -8   1  442.08    4.36
   3  -8   1  492.48    5.04
   3  -8   1  472.77    4.91
   3  -8   1  490.27    4.42
   3  -8   1  459.38    4.57
   3  -8   1  461.20    4.82
   3  -8   1  457.21    4.84
   3  -8   2  185.61    2.76
   3  -8   2  161.45    2.26
   3  -8   2  173.60    2.67
   3  -8   2  156.42    2.21
   3  -8   2  174.45    2.70
   3  -8   2  165.74    2.51
   3  -8   2  177.24    2.72
   3  -8   2  187.68    2.86
   3  -8   2  172.99    2.68
   3  -8   3   59.32    1.53
   3  -8   3   57.49    1.42
   3  -8   3   63.31    1.64
   3  -8   3   59.23    1.52
   3  -8   3   61.90    1.51
   3  -8   4   40.84    1.21
   3  -8   4   39.49    1.23
   3  -8   4   43.22    1.29
   3  -8   4   42.05    1.16
   3  -8   5    7.83    0.60
   3  -8   5    6.99    0.50
   3  -8   5    6.84    0.47
   3  -8   5    8.76    0.63
   3  -8   5    7.87    0.59
   3  -8   5    8.75    0.53
   3  -8   6   48.10    1.11
   3  -8   6   40.88    1.00
   3  -8   6   40.20    0.95
   3  -8   6   48.83    1.20
   3  -8   6   46.30    1.15
   3  -8   7    0.56    0.29
   3  -8   7    0.56    0.24
   3  -8   7    0.05    0.21
   3  -8   7    0.34    0.30
   3  -8   7    0.19    0.28
   3  -8   8    3.55    0.32
   3  -7 -13  300.99    2.80
   3  -7 -13  296.96    2.76
   3  -7 -13  282.18    2.67
  -3   7  13  279.70    2.61
   3  -7 -12  226.11    2.64
   3  -7 -12  196.73    2.27
  -3   7  12  197.71    2.39
  -3   7  12  224.80    2.54
  -3   7  12  196.99    2.24
   3  -7 -12  210.90    2.50
   3  -7 -12  223.44    2.68
   3  -7 -12  216.10    2.14
   3  -7 -11    0.80    0.39
  -3   7  11    0.78    0.34
   3  -7 -11    1.05    0.30
   3  -7 -11    0.57    0.38
   3  -7 -11    1.06    0.37
  -3   7  11    0.35    0.72
   3  -7 -11    1.26    0.45
   3  -7 -11    0.30    0.33
  -3   7  11    1.10    0.44
   3  -7 -10    0.11    0.38
  -3   7  10    0.35    0.34
   3  -7 -10    0.10    0.29
   3  -7 -10    0.28    0.43
   3  -7 -10    0.14    0.41
   3  -7 -10   -0.36    0.37
   3  -7 -10    0.28    0.42
   3  -7  -9   16.33    0.90
  -3   7   9   18.63    0.85
   3  -7  -9   20.74    1.06
  -3   7   9   13.96    0.82
   3  -7  -9   21.22    0.93
  -3   7   9   18.32    1.00
   3  -7  -9   18.60    1.00
  -3   7   9   18.20    0.86
   3  -7  -9   16.00    0.85
   3  -7  -8    0.43    0.40
  -3   7   8    0.76    0.35
   3  -7  -8    1.41    0.52
  -3   7   8    1.87    0.47
   3  -7  -8    0.66    0.44
  -3   7   8   -0.22    0.52
   3  -7  -8    1.05    0.38
   3  -7  -8    0.64    0.46
   3  -7  -7    4.94    0.50
   3  -7  -7    6.49    0.64
  -3   7   7    6.45    0.56
   3  -7  -7    7.44    0.74
  -3   7   7    5.08    1.04
   3  -7  -7    6.32    0.68
  -3   7   7    6.09    0.58
   3  -7  -6    0.34    0.41
   3  -7  -6   -0.12    0.40
   3  -7  -6    0.39    0.36
   3  -7  -6    0.61    0.48
  -3   7   6   -0.13    0.66
  -3   7   6    0.57    0.40
   3  -7  -5  102.01    2.13
   3  -7  -5  100.81    1.90
  -3   7   5  109.52    1.99
   3  -7  -5  105.60    2.34
  -3   7   5   97.75    3.83
   3  -7  -5  101.42    1.95
   3  -7  -5  104.23    2.27
   3  -7  -4   83.93    1.75
   3  -7  -4   82.41    1.70
   3  -7  -4   85.22    1.85
  -3   7   4   89.28    1.77
   3  -7  -4   89.62    2.09
  -3   7   4   88.33    3.58
  -3   7   4   90.97    3.50
   3  -7  -4   88.73    1.88
   3  -7  -4   85.08    1.98
   3  -7  -3   73.42    1.68
   3  -7  -3   81.00    1.94
  -3   7   3   76.96    1.62
  -3   7   3   75.48    3.29
  -3   7   3   81.61    3.30
   3  -7  -3   76.56    1.79
   3  -7  -3   77.73    1.78
  -3   7   2   29.71    2.08
   3  -7  -2   29.93    1.12
   3  -7  -2   31.53    1.18
  -3   7   2   30.73    2.05
  -3   7   2   29.97    2.07
   3  -7  -2   31.74    1.17
  -3   7   1  169.89    4.85
   3  -7  -1  162.88    2.66
   3  -7  -1  173.56    2.78
  -3   7   1  168.30    4.78
  -3   7   1  175.49    4.95
   3  -7  -1  176.34    2.79
   3  -7  -1  167.80    2.73
   3  -7   0    6.20    0.58
   3  -7   0    6.25    0.65
  -3   7   0    4.43    0.89
   3  -7   0    5.65    0.55
   3  -7   0    6.70    0.65
  -3   7   0    4.62    0.90
  -3   7   0    6.37    1.02
   3  -7   0    7.50    0.56
   3  -7   0    6.60    0.60
   3  -7   0    6.30    0.63
   3  -7   1  116.07    2.19
   3  -7   1  113.90    2.19
   3  -7   1  111.51    2.02
   3  -7   1  111.79    2.15
   3  -7   1  119.30    2.04
  -3   7  -1  113.27    3.99
   3  -7   1  117.81    2.26
   3  -7   1  113.08    2.34
   3  -7   1  113.41    1.99
   3  -7   1  108.85    2.23
   3  -7   1  110.97    2.23
   3  -7   2   18.78    0.91
   3  -7   2   16.65    0.80
   3  -7   2   18.51    0.95
   3  -7   2   19.16    0.96
   3  -7   2   17.54    0.85
  -3   7  -2   19.48    1.70
   3  -7   2   20.10    0.86
   3  -7   2   20.07    1.01
   3  -7   2   19.17    0.93
   3  -7   2   18.58    0.83
   3  -7   2   18.21    0.93
   3  -7   2   18.52    0.93
   3  -7   3   26.66    1.10
   3  -7   3   27.52    1.13
   3  -7   3   29.50    0.99
   3  -7   3   30.64    1.14
  -3   7  -3   23.93    1.88
   3  -7   3   26.51    1.05
   3  -7   3   29.68    1.01
   3  -7   3   28.22    1.17
   3  -7   3   28.83    1.15
   3  -7   3   27.88    1.00
   3  -7   3   26.65    1.09
   3  -7   4   98.75    2.02
   3  -7   4  102.72    1.74
   3  -7   4   94.67    1.97
   3  -7   4   93.65    1.90
   3  -7   4  102.05    2.17
   3  -7   4  104.53    2.13
   3  -7   4  102.55    1.91
   3  -7   4   97.71    2.08
   3  -7   4   99.51    1.98
   3  -7   5    0.97    0.37
   3  -7   5    0.71    0.43
   3  -7   5    1.83    0.83
   3  -7   5    0.50    0.42
   3  -7   5    0.37    0.32
   3  -7   5    0.21    0.32
   3  -7   5    0.61    0.37
   3  -7   5    0.16    0.48
   3  -7   6    0.17    0.41
   3  -7   6    0.72    0.32
   3  -7   6    0.90    0.36
   3  -7   6    0.36    0.44
   3  -7   6    0.32    0.45
   3  -7   6    0.39    0.39
   3  -7   7    0.19    0.33
   3  -7   7    0.63    0.30
   3  -7   7    0.31    0.30
   3  -7   7    0.36    0.36
   3  -7   7    0.23    0.34
   3  -7   8    0.50    0.27
   3  -7   8    0.35    0.32
   3  -7   8    0.59    0.29
   3  -7   8    0.19    0.28
   3  -7   8    0.82    0.31
   3  -7   9    2.91    0.31
   3  -7   9    3.41    0.35
   3  -7   9    2.83    0.33
   3  -7   9    2.98    0.36
   3  -6 -14   36.79    0.84
   3  -6 -14   34.09    0.80
  -3   6  14   32.93    0.73
   3  -6 -14   36.32    0.86
   3  -6 -13   22.12    0.82
   3  -6 -13   22.80    0.79
  -3   6  13   20.82    0.76
   3  -6 -13   22.44    0.79
   3  -6 -13   22.74    0.83
  -3   6  12   -0.01    0.36
   3  -6 -12    0.31    0.40
   3  -6 -12    0.09    0.30
   3  -6 -12    0.20    0.36
   3  -6 -12   -0.13    0.36
   3  -6 -11  126.09    2.36
  -3   6  11  117.49    2.05
   3  -6 -11  126.82    2.26
  -3   6  11  118.83    2.19
  -3   6  11  129.65    2.32
   3  -6 -11  123.71    1.95
   3  -6 -11  121.97    2.32
   3  -6 -11  130.68    2.39
   3  -6 -10   47.09    1.54
   3  -6 -10   43.21    1.47
  -3   6  10   44.69    1.31
   3  -6 -10   44.50    1.47
   3  -6 -10   44.94    1.27
   3  -6 -10   41.97    1.43
   3  -6  -9   10.29    0.79
  -3   6   9    9.04    0.67
   3  -6  -9   10.46    0.83
  -3   6   9    8.52    1.22
   3  -6  -9    9.38    0.72
  -3   6   9   10.12    0.85
  -3   6   9    9.25    0.73
  -3   6   9    8.50    0.69
   3  -6  -9    9.00    0.74
   3  -6  -9   10.83    0.82
   3  -6  -8   61.68    1.30
   3  -6  -8   57.96    1.72
  -3   6   8   59.55    1.51
   3  -6  -8   61.78    1.80
   3  -6  -8   57.01    1.69
  -3   6   8   56.29    2.83
   3  -6  -8   60.12    1.55
  -3   6   8   58.18    1.54
   3  -6  -8   61.53    1.80
  -3   6   8   59.34    1.57
   3  -6  -7   30.18    1.25
  -3   6   7   33.71    1.12
   3  -6  -7   30.65    1.29
   3  -6  -7   31.77    1.31
  -3   6   7   29.45    2.15
   3  -6  -7   31.25    1.36
   3  -6  -7   26.24    0.90
   3  -6  -7   29.71    1.23
  -3   6   7   30.23    1.10
  -3   6   6   30.81    1.06
   3  -6  -6   29.41    0.99
   3  -6  -6   30.72    1.25
   3  -6  -6   30.25    2.40
   3  -6  -6   33.11    1.32
   3  -6  -6   32.79    1.36
   3  -6  -6   32.34    1.24
   3  -6  -6   33.71    1.34
   3  -6  -5    0.79    0.36
   3  -6  -5    1.41    0.42
   3  -6  -5    2.30    0.89
   3  -6  -5    0.87    0.40
  -3   6   5    1.28    0.73
  -3   6   5    1.42    0.37
   3  -6  -5    1.70    0.45
   3  -6  -5    1.07    0.40
   3  -6  -4   55.71    1.36
   3  -6  -4   53.27    1.32
   3  -6  -4   57.71    1.57
   3  -6  -4   50.98    2.97
  -3   6   4   57.44    1.35
   3  -6  -4   58.98    1.68
  -3   6   4   55.87    2.77
   3  -6  -4   58.05    1.76
  -3   6   4   60.70    2.72
   3  -6  -4   57.06    1.43
   3  -6  -4   59.11    1.65
   3  -6  -4   61.69    1.49
   3  -6  -3    1.19    0.37
   3  -6  -3    1.38    0.34
   3  -6  -3    1.53    0.61
   3  -6  -3    1.36    0.43
  -3   6   3    1.35    0.67
  -3   6   3    1.33    0.33
   3  -6  -3    1.26    0.38
   3  -6  -3    1.46    0.37
  -3   6   3    0.97    0.54
  -3   6   2   57.93    2.62
   3  -6  -2   50.41    2.78
  -3   6   2   53.34    2.67
   3  -6  -2   54.37    1.55
  -3   6   2   57.65    2.68
   3  -6  -2   55.01    1.39
   3  -6  -2   53.60    1.43
  -3   6   2   56.30    2.63
   3  -6  -2   56.70    1.45
   3  -6  -2   56.34    1.46
   3  -6  -1   51.27    1.40
   3  -6  -1   48.23    2.68
  -3   6   1   54.00    2.57
  -3   6   1   53.10    2.64
   3  -6  -1   54.53    1.46
  -3   6   1   53.42    2.52
  -3   6   1   53.48    2.56
   3  -6  -1   53.66    1.47
   3  -6  -1   52.59    1.38
   3  -6  -1   55.74    1.47
   3  -6   0    7.96    0.61
  -3   6   0    7.45    1.01
   3  -6   0    7.75    0.63
  -3   6   0    7.82    1.07
  -3   6   0    7.08    1.01
   3  -6   0    8.38    0.64
  -3   6   0    7.62    1.04
  -3   6   0    7.37    1.03
   3  -6   0    8.49    0.64
   3  -6   0    7.87    0.58
   3  -6   0    8.31    0.63
   3  -6   1   57.59    1.46
   3  -6   1   53.74    1.45
  -3   6  -1   51.39    2.46
   3  -6   1   53.52    1.49
  -3   6  -1   53.93    2.62
  -3   6  -1   56.81    2.79
   3  -6   1   51.98    1.34
  -3   6  -1   56.01    2.79
   3  -6   1   56.33    1.49
   3  -6   1   57.19    1.38
   3  -6   1   55.11    1.54
   3  -6   1   51.71    1.44
   3  -6   1   54.52    1.47
   3  -6   1   54.48    1.47
   3  -6   2    0.01    0.36
   3  -6   2   -0.18    0.39
   3  -6   2    0.04    0.40
   3  -6   2   -0.23    0.38
   3  -6   2    0.50    0.35
   3  -6   2    0.24    0.37
  -3   6  -2   -0.24    0.35
   3  -6   2    0.37    0.34
   3  -6   2    0.22    0.28
   3  -6   2   -0.09    0.33
   3  -6   2    0.46    0.30
   3  -6   3    6.11    0.59
   3  -6   3    5.55    0.58
   3  -6   3    5.77    0.52
   3  -6   3    6.29    0.53
   3  -6   3    5.66    0.62
   3  -6   3    5.99    0.61
  -3   6  -3    4.59    0.90
  -3   6  -3    4.55    0.87
   3  -6   3    5.38    0.54
   3  -6   3    5.75    0.60
   3  -6   3    5.19    0.52
   3  -6   3    5.21    0.56
   3  -6   4    1.76    0.40
   3  -6   4    1.46    0.43
   3  -6   4    2.35    0.47
   3  -6   4    1.31    0.43
   3  -6   4    2.56    0.51
   3  -6   4    2.04    0.36
   3  -6   4    2.53    0.45
   3  -6   5   18.55    0.94
   3  -6   5   21.15    0.87
   3  -6   5   22.70    1.07
   3  -6   5   21.58    0.96
   3  -6   5   20.72    1.05
   3  -6   5   20.16    0.89
   3  -6   6  334.08    3.91
   3  -6   6  349.15    4.31
   3  -6   6  342.89    3.76
   3  -6   6  341.94    3.95
   3  -6   7   28.35    1.01
   3  -6   7   31.98    1.21
   3  -6   7   30.19    1.18
   3  -6   8    9.21    0.55
   3  -6   8    8.78    0.68
   3  -6   8   10.20    0.72
   3  -6   8    9.56    0.69
   3  -6   9    0.82    0.38
   3  -6   9    0.55    0.36
   3  -6  10   33.96    0.88
   3  -6  10   30.90    0.84
   3  -6  10   32.90    0.90
   3  -6  11   71.93    1.06
   3  -5 -14   15.21    0.61
   3  -5 -14   15.83    0.66
   3  -5 -14   13.63    0.51
  -3   5  14   15.35    0.59
   3  -5 -14   16.24    0.66
   3  -5 -13    1.76    0.37
   3  -5 -13    1.82    0.40
  -3   5  13    1.00    0.23
  -3   5  13    1.83    0.37
   3  -5 -13    2.18    0.43
   3  -5 -12    8.26    0.68
  -3   5  12    7.99    0.68
   3  -5 -12    8.68    0.52
   3  -5 -12    8.70    0.72
   3  -5 -12    8.74    0.66
   3  -5 -11   18.53    0.99
  -3   5  11   17.96    0.89
   3  -5 -11   18.70    0.92
   3  -5 -11   18.44    1.02
   3  -5 -11   17.96    0.80
  -3   5  11   17.41    0.98
  -3   5  11   18.57    1.00
   3  -5 -11   19.10    1.00
   3  -5 -10  567.87    5.97
   3  -5 -10  573.00    5.77
   3  -5 -10  560.72    5.22
  -3   5  10  597.07    5.53
   3  -5 -10  563.32    5.97
   3  -5 -10  576.80    5.96
  -3   5  10  587.30    5.60
   3  -5  -9    0.33    0.42
  -3   5   9    0.95    0.39
   3  -5  -9    0.27    0.43
  -3   5   9    0.65    0.47
  -3   5   9    1.19    0.80
  -3   5   9    2.73    0.67
   3  -5  -9    0.21    0.44
  -3   5   9    0.66    0.52
   3  -5  -9    0.53    0.42
   3  -5  -9    0.94    0.47
   3  -5  -8   42.67    1.09
   3  -5  -8   43.24    1.48
  -3   5   8   41.25    1.28
   3  -5  -8   43.37    1.49
  -3   5   8   39.58    2.40
   3  -5  -8   42.35    1.29
  -3   5   8   40.15    1.30
   3  -5  -8   43.84    1.51
  -3   5   8   40.82    1.29
   3  -5  -8   42.34    1.49
   3  -5  -7  195.44    3.19
   3  -5  -7  190.49    5.85
  -3   5   7  192.77    2.75
   3  -5  -7  199.95    3.20
  -3   5   7  195.38    5.19
  -3   5   7  190.86    2.74
   3  -5  -7  198.78    3.29
   3  -5  -7  194.36    3.18
   3  -5  -7  195.55    3.21
  -3   5   7  199.12    5.28
   3  -5  -6   91.52    2.06
   3  -5  -6   83.61    3.73
   3  -5  -6   89.25    2.05
   3  -5  -6   91.39    2.08
   3  -5  -6   91.52    2.09
   3  -5  -6   90.87    2.14
  -3   5   6   88.89    1.72
  -3   5   5  116.33    3.82
  -3   5   5  114.41    1.89
  -3   5   4   55.22    1.24
   3  -5  -4   52.73    2.76
  -3   5   4   57.57    2.58
  -3   5   4   56.95    2.48
   3  -5  -3  142.27    4.38
  -3   5   3  142.94    2.01
  -3   5   3  150.52    4.06
  -3   5   3  144.56    3.86
   3  -5  -2   15.62    1.64
   3  -5  -2   20.20    1.64
  -3   5   2   18.64    1.48
  -3   5   2   19.12    1.40
  -3   5   2   17.97    1.37
  -3   5   1  206.13    4.60
   3  -5  -1  198.40    4.95
  -3   5   1  207.95    4.79
  -3   5   1  206.14    4.66
  -3   5   1  218.05    4.88
  -3   5   0  325.29    5.88
  -3   5   0  338.93    6.09
  -3   5   0  336.16    6.02
  -3   5   0  349.40    6.34
  -3   5   0  357.11    6.41
  -3   5  -1    2.17    0.59
  -3   5  -1    2.61    0.62
   3  -5   2    5.06    1.03
  -3   5  -2    4.89    0.84
  -3   5  -2    4.51    0.79
   3  -5   3    3.59    0.44
   3  -5   3    3.61    0.42
   3  -5   3    4.29    1.06
   3  -5   3    4.65    0.45
   3  -5   3    5.08    0.53
  -3   5  -3    3.93    0.79
   3  -5   3    4.55    0.53
   3  -5   3    4.80    0.53
   3  -5   3    4.18    0.45
   3  -5   3    4.61    0.48
   3  -5   4   72.85    1.67
   3  -5   4   73.88    3.66
   3  -5   4   70.47    1.48
  -3   5  -4   67.12    3.11
   3  -5   4   74.85    1.58
   3  -5   4   75.38    1.61
   3  -5   4   73.72    1.67
   3  -5   4   70.44    1.83
   3  -5   4   68.68    1.48
   3  -5   4   74.43    1.80
   3  -5   4   71.05    1.61
   3  -5   5  270.90    3.07
  -3   5  -5  274.12    6.70
   3  -5   5  275.29    3.28
   3  -5   5  286.76    3.39
   3  -5   5  297.17    3.89
   3  -5   5  301.16    3.65
   3  -5   5  289.71    3.94
   3  -5   6   23.22    0.98
   3  -5   6   26.68    1.16
   3  -5   6   25.28    1.05
   3  -5   6   27.45    1.16
  -3   5  -6   24.93    2.11
   3  -5   6   28.79    1.21
   3  -5   6   26.85    1.03
   3  -5   7  138.41    2.42
   3  -5   7  125.11    2.19
  -3   5  -7  131.12    4.50
   3  -5   7  130.15    2.28
   3  -5   7  143.35    2.56
   3  -5   7  137.21    2.64
   3  -5   7  132.13    2.38
   3  -5   8    2.24    0.38
  -3   5  -8    1.83    0.79
   3  -5   8    2.26    0.43
   3  -5   8    2.38    0.54
   3  -5   8    2.17    0.52
   3  -5   9   46.34    1.31
   3  -5   9   49.15    1.44
   3  -5   9   45.61    1.30
   3  -5  10    6.52    0.52
   3  -5  10    6.90    0.56
   3  -5  11   28.57    0.81
   3  -5  11   31.05    0.87
   3  -5  12    1.00    0.28
  -3   4  15    1.58    0.28
   3  -4 -15    1.79    0.32
  -3   4  15    1.55    0.24
   3  -4 -15    1.42    0.27
  -3   4  14   72.52    1.40
   3  -4 -14   77.36    1.44
  -3   4  14   73.99    1.34
   3  -4 -14   72.41    1.30
  -3   4  13   36.96    1.01
   3  -4 -13   39.06    1.14
   3  -4 -13   40.17    1.23
   3  -4 -13   37.25    1.04
  -3   4  13   39.27    1.16
  -3   4  12    9.23    0.60
   3  -4 -12   10.03    0.54
   3  -4 -12   10.06    0.67
  -3   4  12    9.29    0.72
   3  -4 -12   10.43    0.73
  -3   4  12   11.76    0.67
   3  -4 -12   10.63    0.78
   3  -4 -11   91.30    1.70
   3  -4 -11   97.69    2.16
   3  -4 -11   91.24    1.89
   3  -4 -11   98.04    2.09
  -3   4  11   92.86    2.03
  -3   4  11   88.20    2.13
  -3   4  11   87.20    1.93
   3  -4 -11   99.20    2.23
  -3   4  11   91.67    1.95
  -3   4  10   32.96    1.20
   3  -4 -10   31.74    1.19
   3  -4 -10   32.13    1.06
  -3   4  10   29.95    1.30
   3  -4 -10   32.94    1.33
   3  -4 -10   33.19    1.29
  -3   4   9  227.15    3.20
   3  -4  -9  235.91    3.39
  -3   4   9  229.42    5.48
  -3   4   9  236.13    3.21
   3  -4  -9  236.91    3.61
  -3   4   9  242.87    3.24
   3  -4  -9  230.31    3.02
   3  -4  -9  237.76    3.52
  -3   4   8    1.71    0.65
  -3   4   8    0.76    0.32
   3  -4  -8    2.22    0.78
   3  -4  -8    1.25    0.42
  -3   4   8    0.69    0.39
  -3   4   8    1.25    0.68
   3  -4  -8    1.52    0.42
  -3   4   8    2.55    0.49
  -3   4   8   -0.94    0.50
   3  -4  -8    0.62    0.37
   3  -4  -8    0.58    0.41
   3  -4  -7  194.08    5.59
   3  -4  -7  209.34    3.12
  -3   4   7  213.54    5.17
   3  -4  -7  198.21    2.74
  -3   4   7  207.54    2.84
   3  -4  -7  207.70    3.21
  -3   4   7  205.32    2.75
  -3   4   7  215.28    5.23
   3  -4  -7  211.50    3.18
   3  -4  -6    1.17    0.62
  -3   4   6    0.45    0.67
  -3   4   6    0.19    0.29
  -3   4   5   28.78    0.88
   3  -4  -5   27.23    2.22
   3  -4  -5   26.53    1.91
  -3   4   4  268.23    2.83
   3  -4  -4  265.44    5.78
  -3   4   4  272.97    5.35
   3  -4  -4  257.83    6.43
   3  -4  -3   52.05    2.78
   3  -4  -3   51.48    2.40
  -3   4   3   52.21    1.08
  -3   4   3   53.95    2.23
  -3   4   3   53.23    2.12
   3  -4  -2    4.88    0.99
   3  -4  -2    4.19    0.75
  -3   4   2    3.35    0.67
  -3   4   2    3.30    0.56
  -3   4   2    3.38    0.57
   3  -4  -1 1198.12   13.96
   3  -4  -1 1277.48   12.81
  -3   4   1 1307.56   12.52
  -3   4   1 1267.72   12.05
  -3   4   1 1229.90   11.75
  -3   4   1 1262.15   11.98
  -3   4   1 1354.85   12.40
   3  -4   0  126.52    3.96
   3  -4   0  129.84    3.42
  -3   4   0  131.25    3.24
  -3   4   0  139.03    3.40
  -3   4   0  133.11    3.28
  -3   4   0  137.00    3.45
  -3   4   0  141.63    3.49
  -3   4  -1  147.05    3.39
  -3   4  -1  150.64    3.73
  -3   4  -1  158.32    3.82
  -3   4  -1  151.62    3.48
   3  -4   2  247.87    5.70
  -3   4  -2  230.48    4.86
   3  -4   3  398.62    7.66
  -3   4  -3  370.24    6.57
   3  -4   4    6.58    1.18
  -3   4  -4    6.50    0.82
  -3   4  -4    7.63    1.01
  -3   4  -4    7.49    0.87
   3  -4   5  199.57    3.10
   3  -4   5  186.39    2.38
   3  -4   5  175.11    2.54
   3  -4   5  207.01    5.93
  -3   4  -5  185.26    5.28
   3  -4   5  198.68    2.72
  -3   4  -5  202.34    5.08
   3  -4   5  195.13    3.08
   3  -4   5  201.68    2.67
   3  -4   5  202.22    2.98
   3  -4   5  198.00    2.80
   3  -4   6  414.43    4.00
   3  -4   6  488.32    9.54
  -3   4  -6  426.26    8.67
  -3   4  -6  457.72    8.32
  -3   4  -6  452.31    8.00
   3  -4   6  452.91    5.10
   3  -4   6  453.27    4.34
   3  -4   6  445.72    4.51
   3  -4   6  463.40    4.97
   3  -4   6  463.28    4.73
  -3   4  -7    2.86    0.82
   3  -4   7    3.27    0.50
   3  -4   7    3.28    0.53
   3  -4   7    3.17    0.48
   3  -4   7    4.35    0.59
   3  -4   7    2.82    0.50
   3  -4   8    2.03    0.46
  -3   4  -8    0.76    0.69
   3  -4   8    1.46    0.49
   3  -4   8    2.39    0.47
   3  -4   8    2.14    0.52
   3  -4   9    4.89    0.57
  -3   4  -9    3.91    1.02
   3  -4   9    5.01    0.59
   3  -4   9    4.09    0.60
   3  -4   9    4.33    0.56
   3  -4  10   46.68    1.40
   3  -4  10   45.10    1.39
  -3   4 -10   43.09    2.57
   3  -4  10   44.17    1.24
   3  -4  10   47.74    1.43
   3  -4  11    7.44    0.59
   3  -4  11    8.48    0.61
   3  -4  12   28.06    0.88
   3  -4  12   30.21    0.86
   3  -4  13    0.43    0.25
  -3   3  15   49.09    0.97
   3  -3 -15   50.62    1.01
  -3   3  15   48.24    0.87
   3  -3 -15   46.33    0.84
  -3   3  15   47.05    0.87
  -3   3  14   88.76    1.44
  -3   3  14   91.17    1.62
  -3   3  14   87.66    1.54
   3  -3 -14   88.41    1.55
  -3   3  14   86.95    1.51
  -3   3  13   77.22    1.55
   3  -3 -13   77.23    1.56
  -3   3  13   77.70    1.68
   3  -3 -13   80.19    1.72
   3  -3 -13   79.15    1.65
  -3   3  12    6.72    0.56
   3  -3 -12    7.37    0.61
  -3   3  12    5.18    0.43
  -3   3  12    6.93    0.65
   3  -3 -12    7.97    0.68
  -3   3  12    6.08    0.49
   3  -3 -12    7.53    0.56
   3  -3 -12    6.58    0.61
   3  -3 -11   29.90    1.18
  -3   3  11   29.70    1.23
   3  -3 -11   31.48    1.27
   3  -3 -11   29.82    0.95
   3  -3 -11   29.06    1.11
   3  -3 -11   28.45    1.15
  -3   3  10  256.63    3.49
  -3   3  10  238.90    3.29
  -3   3  10  235.52    3.57
  -3   3  10  218.13    2.32
  -3   3  10  252.85    3.35
   3  -3 -10  240.11    2.92
   3  -3 -10  245.99    3.62
   3  -3 -10  240.49    3.40
   3  -3 -10  232.59    3.40
   3  -3  -9    1.43    0.38
  -3   3   9    2.16    0.87
  -3   3   9    2.48    0.43
   3  -3  -9    1.77    0.76
   3  -3  -9    1.82    0.40
   3  -3  -9    1.01    0.38
  -3   3   9    2.95    0.57
  -3   3   9    1.06    0.44
   3  -3  -9    0.70    0.40
   3  -3  -9    0.58    0.35
  -3   3   8   11.74    0.75
  -3   3   8   12.01    0.71
   3  -3  -8   12.61    1.49
   3  -3  -8   13.32    0.76
  -3   3   8   12.59    1.42
   3  -3  -8   11.81    0.67
  -3   3   8   12.28    1.39
  -3   3   8   12.92    0.74
   3  -3  -8   12.72    0.81
   3  -3  -8   12.95    0.79
   3  -3  -7  184.12    5.58
   3  -3  -7  199.98    5.39
  -3   3   7  219.02    5.04
  -3   3   7  214.94    5.09
  -3   3   7  201.81    2.74
  -3   3   7  196.86    2.65
  -3   3   6   -0.01    0.31
   3  -3  -6    0.38    0.69
  -3   3   6   -0.25    0.63
   3  -3  -6    0.04    0.51
  -3   3   6    0.75    0.29
  -3   3   6    0.18    0.61
  -3   3   6   -0.02    0.35
   3  -3  -5  141.09    4.54
   3  -3  -5  140.74    4.04
  -3   3   5  144.00    3.81
  -3   3   5  137.13    1.93
  -3   3   4  109.92    1.58
   3  -3  -4  119.04    3.95
   3  -3  -4  113.11    3.45
  -3   3   4  116.12    3.35
  -3   3   3  381.72    3.27
   3  -3  -3  394.75    6.27
  -3   3   3  389.03    5.84
   3  -3  -2  268.09    5.61
   3  -3  -2  263.63    4.78
  -3   3   2  263.02    4.42
  -3   3   2  254.02    4.11
   3  -3  -1 1023.27   11.63
   3  -3  -1 1048.48   10.26
  -3   3   1 1027.03    9.62
  -3   3   1 1034.88    9.41
   3  -3   0    3.00    0.71
   3  -3   0    2.56    0.45
  -3   3   0    2.35    0.39
  -3   3   0    2.72    0.47
  -3   3   0    4.01    0.54
  -3   3   0    3.28    0.49
   3  -3   1    1.10    0.50
  -3   3  -1    0.86    0.32
  -3   3  -1    0.93    0.33
  -3   3  -1    0.39    0.28
   3  -3   2   35.64    2.23
   3  -3   2   37.23    1.86
   3  -3   3    4.52    0.95
   3  -3   3    4.19    0.87
  -3   3  -3    3.92    0.62
  -3   3  -3    3.96    0.72
  -3   3  -3    4.38    0.64
   3  -3   4  215.13    5.76
  -3   3  -4  217.25    4.96
  -3   3  -4  215.37    4.90
  -3   3  -4  210.49    4.48
  -3   3  -4  216.94    4.23
   3  -3   5  290.25    6.60
   3  -3   5  273.16    7.18
  -3   3  -5  293.78    6.04
  -3   3  -5  281.22    5.29
  -3   3  -5  282.84    6.04
   3  -3   6  113.65    4.23
   3  -3   6  105.46    4.76
  -3   3  -6  109.68    3.78
  -3   3  -6  109.53    3.93
  -3   3  -6  111.85    3.87
   3  -3   6  106.66    2.21
   3  -3   6  103.27    1.86
   3  -3   6  104.12    2.07
   3  -3   6  105.53    1.97
  -3   3  -6  102.25    3.18
   3  -3   7  832.57    7.50
   3  -3   7  881.32   12.88
   3  -3   7  813.24   14.65
  -3   3  -7  845.46   11.68
  -3   3  -7  872.78   12.20
  -3   3  -7  858.53   11.72
  -3   3  -7  852.85   12.03
   3  -3   7  834.82    6.94
   3  -3   7  840.82    7.26
   3  -3   7  820.08    7.05
   3  -3   7  867.84    7.67
   3  -3   8   72.01    1.89
  -3   3  -8   67.28    3.64
  -3   3  -8   67.93    3.20
   3  -3   8   66.91    1.85
  -3   3  -8   71.05    3.40
   3  -3   8   65.82    1.64
  -3   3  -8   70.94    3.46
   3  -3   8   68.93    1.73
   3  -3   8   64.31    1.65
  -3   3  -9  175.20    5.45
   3  -3   9  189.62    3.12
  -3   3  -9  175.88    5.26
  -3   3  -9  180.64    2.70
  -3   3  -9  171.57    5.37
   3  -3   9  173.32    2.75
   3  -3   9  175.34    2.79
   3  -3   9  175.09    3.07
   3  -3  10  116.61    2.35
   3  -3  10  110.36    2.04
  -3   3 -10  109.46    4.09
  -3   3 -10  110.18    2.04
   3  -3  10  114.42    2.38
  -3   3 -10  109.01    1.93
   3  -3  10  116.55    2.39
   3  -3  11  122.95    2.29
   3  -3  11  122.94    2.36
  -3   3 -11  116.26    4.24
  -3   3 -11  114.27    1.98
   3  -3  11  126.02    2.32
   3  -3  12   81.28    1.69
   3  -3  12   80.38    1.73
  -3   3 -12   76.93    1.52
   3  -3  12   83.67    1.65
   3  -3  13  165.16    2.18
   3  -3  13  166.04    2.00
  -3   2  15    0.18    0.23
  -3   2  15   -0.01    0.27
   3  -2 -15    0.10    0.23
  -3   2  15    0.50    0.27
  -3   2  14   10.51    0.60
  -3   2  14    9.75    0.61
  -3   2  14   10.66    0.59
   3  -2 -14   10.02    0.51
   3  -2 -14   10.98    0.61
  -3   2  14    8.83    0.51
  -3   2  13   49.50    1.27
  -3   2  13   50.90    1.41
   3  -2 -13   48.41    1.25
  -3   2  13   50.19    1.36
   3  -2 -13   49.96    1.30
   3  -2 -13   50.85    1.41
  -3   2  12   15.02    0.80
   3  -2 -12   14.15    0.74
   3  -2 -12   14.29    0.79
  -3   2  12   12.29    0.62
  -3   2  12   15.72    0.88
   3  -2 -12   15.20    0.82
  -3   2  12   14.34    0.71
   3  -2 -12   14.96    0.86
  -3   2  11    8.08    0.62
   3  -2 -11    7.95    0.64
   3  -2 -11    7.71    0.64
  -3   2  11    7.01    0.68
  -3   2  11    8.58    0.54
   3  -2 -11    8.65    0.71
  -3   2  11    7.44    0.59
   3  -2 -11    7.69    0.68
  -3   2  10   47.09    1.30
   3  -2 -10   53.69    1.54
   3  -2 -10   52.38    1.51
  -3   2  10   53.58    1.65
  -3   2  10   65.73    1.16
  -3   2  10   48.97    1.44
   3  -2 -10   52.29    1.27
   3  -2 -10   53.48    1.60
  -3   2  10   62.11    1.62
   3  -2 -10   53.78    1.61
   3  -2  -9  138.78    2.61
  -3   2   9  137.46    2.39
   3  -2  -9  138.80    4.80
  -3   2   9  141.65    1.73
  -3   2   9  133.15    2.68
  -3   2   9  148.41    2.49
   3  -2  -9  141.14    2.13
  -3   2   9  152.42    2.56
   3  -2  -9  145.10    2.64
   3  -2  -9  139.55    2.42
   3  -2  -8   26.07    2.02
  -3   2   8   29.05    2.02
  -3   2   8   29.04    1.09
   3  -2  -7   15.53    1.57
   3  -2  -7   17.55    1.59
  -3   2   7   16.29    1.47
  -3   2   7   17.54    1.53
  -3   2   7   15.90    0.80
   3  -2  -6   29.65    2.06
   3  -2  -6   29.67    1.93
  -3   2   6   30.14    1.85
  -3   2   6   32.59    1.86
  -3   2   6   30.61    0.97
  -3   2   5   64.90    2.46
   3  -2  -5   65.99    2.86
   3  -2  -5   64.42    2.60
  -3   2   5   67.11    2.49
  -3   2   5   64.51    1.29
  -3   2   5   62.48    1.98
  -3   2   5   57.71    1.19
   3  -2  -4  406.37    7.00
   3  -2  -4  401.30    6.29
  -3   2   4  397.71    5.29
  -3   2   4  414.01    6.20
  -3   2   4  378.82    3.34
  -3   2   4  429.20    6.01
   3  -2  -3   33.38    1.93
   3  -2  -3   35.88    1.71
  -3   2   3   35.44    1.71
   3  -2  -2    8.03    1.02
   3  -2  -2    8.45    0.81
  -3   2   2    9.69    0.92
  -3   2   2    7.79    0.73
   3  -2  -1    0.25    0.48
  -3   2   1    0.53    0.46
  -3   2   1    0.25    0.32
   3  -2   0  101.82    3.00
   3  -2   0  101.34    2.27
  -3   2   0  101.54    2.50
  -3   2   0  100.34    2.13
  -3   2   0  100.99    2.11
  -3   2   0  102.41    2.16
   3  -2   1   33.69    2.08
   3  -2   1   35.13    1.73
  -3   2  -1   35.18    1.41
  -3   2  -1   35.00    1.50
  -3   2  -1   34.20    1.28
  -3   2  -1   32.73    1.26
   3  -2   2   67.27    2.84
   3  -2   2   68.35    2.35
  -3   2  -2   62.68    1.86
  -3   2  -2   69.82    2.13
   3  -2   3    2.87    0.75
   3  -2   3    2.74    0.54
  -3   2  -3    2.66    0.58
   3  -2   4  408.36    7.02
   3  -2   4  395.15    7.40
   3  -2   4  378.80    7.63
  -3   2  -4  398.00    5.66
  -3   2  -4  392.25    6.69
   3  -2   5  339.68    6.64
  -3   2  -5  316.07    5.09
   3  -2   5  322.01    7.59
  -3   2  -5  344.15    6.47
  -3   2  -5  330.51    5.92
  -3   2  -5  333.03    5.71
  -3   2  -5  339.10    6.37
   3  -2   5  342.72    7.17
   3  -2   6  207.06    5.32
   3  -2   6  193.48    5.51
   3  -2   6  207.94    6.45
  -3   2  -6  213.52    5.33
  -3   2  -6  205.43    4.77
  -3   2  -6  203.16    4.51
  -3   2  -6  203.85    5.14
   3  -2   7  144.17    4.64
   3  -2   7  140.55    5.73
  -3   2  -7  142.06    4.50
  -3   2  -7  142.85    4.09
  -3   2  -7  147.66    4.70
  -3   2  -7  145.16    4.51
   3  -2   7  135.22    2.19
   3  -2   7  141.14    2.54
   3  -2   8   17.63    2.25
  -3   2  -8   17.69    1.74
  -3   2  -8   16.36    1.77
   3  -2   8   15.25    0.96
   3  -2   8   16.25    0.84
  -3   2  -8   15.24    1.68
   3  -2   8   16.94    0.93
   3  -2   8   16.77    0.82
   3  -2   8   15.39    0.83
   3  -2   9   40.15    1.43
  -3   2  -9   40.59    2.71
   3  -2   9   35.91    1.36
  -3   2  -9   40.58    2.64
  -3   2  -9   39.50    2.60
   3  -2   9   37.14    1.24
   3  -2   9   40.30    1.25
  -3   2 -10  379.68    4.31
  -3   2 -10  368.87    8.30
   3  -2  10  383.79    4.75
   3  -2  10  365.25    4.61
  -3   2 -10  382.56    8.13
  -3   2 -10  378.40    8.13
   3  -2  10  369.49    4.06
  -3   2 -11  100.79    1.91
   3  -2  11  105.98    2.23
   3  -2  11   97.23    2.16
  -3   2 -11  101.47    4.02
  -3   2 -11  100.17    2.00
   3  -2  11  100.50    2.29
   3  -2  12    0.02    0.47
  -3   2 -12   -0.10    0.32
   3  -2  12    0.18    0.43
  -3   2 -12    0.06    0.25
   3  -2  12    0.19    0.43
   3  -2  13   19.29    0.86
   3  -2  13   19.24    0.86
  -3   2 -13   19.51    0.78
   3  -2  13   19.78    0.79
   3  -2  14  109.90    1.63
   3  -2  14  107.50    1.41
  -3   1  15    5.03    0.34
  -3   1  15    4.84    0.40
  -3   1  15    5.32    0.42
   3  -1 -14    0.46    0.34
  -3   1  14    0.03    0.28
  -3   1  14    0.14    0.35
   3  -1 -14    0.74    0.27
   3  -1 -14    0.63    0.27
  -3   1  14    0.08    0.29
  -3   1  14    0.61    0.34
  -3   1  13  295.34    3.43
  -3   1  13  306.45    3.70
   3  -1 -13  297.66    3.53
  -3   1  13  303.50    3.56
  -3   1  13  315.43    3.68
   3  -1 -13  310.27    3.73
   3  -1 -12    2.32    0.49
  -3   1  12    2.28    0.44
  -3   1  12    1.99    0.49
   3  -1 -12    2.63    0.47
   3  -1 -12    2.27    0.39
  -3   1  12    1.64    0.37
  -3   1  12    2.50    0.49
  -3   1  11   18.20    0.90
   3  -1 -11   19.71    0.97
   3  -1 -11   17.81    0.95
  -3   1  11   15.36    0.72
   3  -1 -11   18.42    0.90
  -3   1  11   18.50    1.00
  -3   1  11   17.23    0.83
   3  -1 -11   19.79    1.02
   3  -1 -10    7.32    0.66
   3  -1 -10    7.39    0.64
   3  -1 -10    7.70    0.66
  -3   1  10    6.04    0.65
  -3   1  10    6.78    0.51
   3  -1 -10    6.84    0.61
  -3   1  10    7.45    0.61
   3  -1  -9    1.08    0.37
   3  -1  -9    1.45    0.39
   3  -1  -9    0.78    0.34
  -3   1   9    0.41    0.36
  -3   1   9    0.37    0.32
   3  -1  -9    0.48    0.34
   3  -1  -8    5.42    0.53
  -3   1   8    4.56    0.57
  -3   1   8    3.62    0.44
   3  -1  -7   28.18    1.89
  -3   1   7   26.37    1.62
  -3   1   7   29.95    1.05
  -3   1   7   30.67    1.94
   3  -1  -6  192.51    4.79
  -3   1   6  191.75    4.16
  -3   1   6  196.91    4.51
  -3   1   6  190.78    2.49
   3  -1  -5  269.32    5.42
  -3   1   5  264.11    4.11
  -3   1   5  265.07    4.99
  -3   1   5  272.33    5.02
  -3   1   5  260.40    2.82
  -3   1   4  687.44    7.08
  -3   1   4  664.60    7.99
  -3   1   4  661.19    7.73
   3  -1  -3   31.31    1.72
  -3   1   3   35.92    1.64
  -3   1   3   30.64    1.45
  -3   1   2    8.02    0.73
   3  -1  -2    6.57    0.88
  -3   1   2    8.26    0.84
  -3   1   2    8.85    0.79
   3  -1  -1  245.46    4.62
   3  -1  -1  251.76    3.70
  -3   1   1  245.66    4.05
  -3   1   1  250.47    3.89
  -3   1   1  243.84    3.54
   3  -1   0   61.58    2.69
   3  -1   0   62.62    2.21
   3  -1   0   64.28    1.57
  -3   1   0   71.48    2.04
  -3   1   0   69.33    1.99
  -3   1   0   62.13    1.59
   3  -1   1  411.12    6.94
   3  -1   1  433.14    6.02
  -3   1  -1  405.61    5.23
  -3   1  -1  394.80    4.97
  -3   1  -1  428.76    5.36
  -3   1  -1  390.04    3.95
  -3   1  -1  401.31    4.03
   3  -1   2 1223.90   13.06
  -3   1  -2 1239.06   10.99
  -3   1  -2 1215.73   10.18
  -3   1  -2 1244.42   10.65
   3  -1   3  179.70    4.58
   3  -1   3  171.61    3.56
  -3   1  -3  170.19    3.54
  -3   1  -3  182.06    3.48
  -3   1  -3  168.69    3.00
  -3   1  -4  172.43    3.24
   3  -1   4  182.30    4.76
  -3   1  -4  179.95    3.64
  -3   1  -4  176.16    3.75
   3  -1   5   37.29    2.25
  -3   1  -5   37.39    1.85
  -3   1  -5   34.38    2.04
  -3   1  -5   35.08    1.93
   3  -1   6   95.61    4.32
  -3   1  -6  104.28    3.64
  -3   1  -6   97.74    3.26
  -3   1  -6   98.00    3.11
   3  -1   6  104.17    4.01
  -3   1  -6  104.89    3.50
   3  -1   7    0.60    0.61
   3  -1   7    0.85    0.76
  -3   1  -7   -0.15    0.53
  -3   1  -7    0.28    0.46
  -3   1  -7    0.35    0.23
  -3   1  -7    0.36    0.54
  -3   1  -7    0.72    0.53
   3  -1   8    0.89    0.66
   3  -1   8    0.16    0.38
   3  -1   8    0.97    0.92
  -3   1  -8    0.18    0.52
   3  -1   8    0.14    0.36
   3  -1   8    0.31    0.31
   3  -1   8    2.20    0.50
  -3   1  -8   -0.05    0.50
  -3   1  -8    0.08    0.23
   3  -1   8    0.14    0.29
   3  -1   8    0.11    0.29
   3  -1   9  296.86    4.51
  -3   1  -9  296.10    7.27
  -3   1  -9  291.55    7.05
   3  -1   9  279.54    3.89
   3  -1   9  285.20    3.80
   3  -1   9  295.24    4.25
  -3   1  -9  289.33    3.40
  -3   1  -9  286.75    3.40
  -3   1  -9  296.41    7.04
   3  -1   9  286.09    3.52
   3  -1  10  398.19    5.45
   3  -1  10  382.40    4.78
  -3   1 -10  404.34    8.52
   3  -1  10  397.55    5.15
  -3   1 -10  409.56    8.76
  -3   1 -10  396.83    8.32
   3  -1  10  396.75    4.62
   3  -1  11  254.92    3.65
   3  -1  11  241.69    3.61
  -3   1 -11  249.00    3.41
   3  -1  11  244.58    3.91
  -3   1 -11  246.02    6.52
  -3   1 -11  249.80    6.62
   3  -1  12   10.91    0.82
  -3   1 -12   10.85    0.68
  -3   1 -12   10.78    1.43
   3  -1  12    9.84    0.74
  -3   1 -12   10.15    0.70
   3  -1  12   11.48    0.87
   3  -1  13   27.19    1.07
   3  -1  13   26.34    1.01
  -3   1 -13   25.22    0.93
  -3   1 -13   25.70    0.89
   3  -1  13   28.83    1.03
   3  -1  13   28.36    1.11
   3  -1  14   50.02    1.21
  -3   1 -14   52.45    1.17
   3  -1  14   53.62    1.27
  -3   1 -14   51.47    1.05
   3  -1  14   53.00    1.15
   3  -1  15   24.59    0.67
  -3   1 -15   29.40    0.67
  -3   0  15   -0.06    0.28
   3   0 -15    0.06    0.24
  -3   0  15    0.50    0.31
  -3   0  14   30.96    0.96
  -3   0  14   32.41    0.91
   3   0 -14   30.95    0.93
  -3   0  14   33.64    0.99
   3   0 -14   32.28    0.98
  -3   0  14   30.64    0.86
  -3   0  13  161.95    2.53
   3   0 -13  154.60    2.34
   3   0 -13  165.96    2.52
  -3   0  13  163.96    2.46
  -3   0  13  167.90    2.57
   3   0 -13  164.26    2.56
  -3   0  13  155.45    2.35
  -3   0  12   36.94    1.22
  -3   0  12   38.87    1.34
   3   0 -12   38.17    1.27
   3   0 -12   38.07    1.31
  -3   0  12   38.34    1.29
  -3   0  12   39.19    1.35
   3   0 -12   37.49    1.29
   3   0 -12   36.52    1.32
  -3   0  11   41.19    1.33
  -3   0  11   42.13    1.43
   3   0 -11   39.13    1.38
   3   0 -11   41.21    1.42
   3   0 -11   39.93    1.39
  -3   0  11   40.13    1.39
  -3   0  11   40.23    1.20
   3   0 -11   40.56    1.43
  -3   0  10    0.99    0.41
  -3   0  10    0.81    0.36
  -3   0  10    0.80    0.40
   3   0 -10    0.39    0.32
   3   0 -10    1.41    0.42
  -3   0  10    0.26    0.31
   3   0 -10    1.03    0.41
   3   0 -10    0.83    0.40
   3   0 -10    1.29    0.44
  -3   0  10    1.03    0.36
  -3   0  10    0.76    0.37
   3   0  -9   35.62    1.31
   3   0  -9   37.55    1.33
   3   0  -9   38.60    1.33
   3   0  -9   39.02    1.33
  -3   0   9   36.03    1.22
   3   0  -9   35.77    1.18
  -3   0   9   37.28    1.10
  -3   0   9   33.58    1.16
  -3   0   9   33.96    1.31
   3   0  -9   36.56    1.32
   3   0  -8  219.08    3.20
  -3   0   8  228.22    2.82
   3   0  -8  226.49    3.01
  -3   0   7   16.49    0.74
  -3   0   7   16.29    0.70
   3   0  -7   17.53    0.85
   3   0  -7   17.14    0.79
   3   0  -6  556.04    8.11
  -3   0   6  572.86    8.03
  -3   0   6  579.45    7.43
   3   0  -6  565.37    5.26
   3   0  -6  575.03    5.01
  -3   0   6  581.88    4.96
  -3   0   6  550.01    4.83
   3   0  -5   75.87    2.68
  -3   0   5   79.71    2.48
  -3   0   5   77.85    1.44
   3   0  -4 1648.88   14.65
  -3   0   4 1642.16   13.99
  -3   0   4 1626.37   13.77
  -3   0   3    0.35    0.53
   3   0  -3    0.27    0.47
  -3   0   3    0.33    0.48
   3   0  -2    1.74    0.55
  -3   0   2    1.64    0.50
  -3   0   2    1.21    0.44
   3   0  -1 1348.23   14.27
   3   0  -1 1463.08   12.72
  -3   0   1 1478.74   11.77
  -3   0   1 1436.75   11.93
  -3   0   1 1387.22   10.82
   3   0   0 1021.13    9.93
  -3   0   0 1003.37    7.95
  -3   0   0 1032.09    9.29
  -3   0   0 1022.09    9.27
   3   0   1  695.49    9.03
   3   0   1  719.21    7.90
  -3   0  -1  720.59    7.60
  -3   0  -1  720.85    7.21
   3   0   2  103.40    3.31
   3   0   2  105.96    2.73
  -3   0  -2  105.00    2.69
  -3   0  -2   99.34    2.38
  -3   0  -2  104.90    2.48
   3   0   3 1880.79   17.14
   3   0   3 1890.22   15.27
  -3   0  -3 1952.08   15.18
  -3   0  -3 1833.23   13.81
  -3   0  -3 1932.75   14.40
   3   0   4   86.88    3.16
   3   0   4   89.94    2.57
  -3   0  -4   85.61    2.54
  -3   0  -4   86.59    2.61
  -3   0  -4   87.02    2.62
  -3   0  -4   85.64    2.23
   3   0   5  349.37    6.90
   3   0   5  343.06    5.36
  -3   0  -5  326.79    5.38
  -3   0  -5  345.14    6.29
  -3   0  -5  319.02    6.01
  -3   0  -5  342.36    5.63
  -3   0  -6   32.61    2.01
  -3   0  -6   33.29    1.96
  -3   0  -6   34.04    1.95
  -3   0  -6   32.34    1.79
   3   0   6   31.03    2.16
  -3   0  -7    7.60    1.07
  -3   0  -7    6.99    1.09
  -3   0  -7    6.75    1.03
  -3   0  -7    7.29    0.51
   3   0   7    7.51    1.22
   3   0   8  123.73    4.79
  -3   0  -8  131.46    4.42
  -3   0  -8  129.86    4.26
  -3   0  -8  129.83    2.15
  -3   0  -8  123.78    4.10
   3   0   9  262.57    4.26
   3   0   9  244.52    7.11
  -3   0  -9  280.51    6.82
   3   0   9  259.64    3.67
   3   0   9  272.35    3.97
  -3   0  -9  274.81    6.89
  -3   0  -9  266.69    3.34
  -3   0  -9  272.33    3.33
   3   0   9  268.69    4.19
   3   0   9  251.08    3.40
   3   0   9  264.02    3.53
   3   0   9  258.24    3.24
   3   0  10  183.52    2.94
  -3   0 -10  182.85    2.76
   3   0  10  186.94    3.61
   3   0  10  182.90    3.10
  -3   0 -10  186.07    2.78
   3   0  10  189.25    3.36
  -3   0 -10  194.98    6.03
  -3   0 -11  813.44   12.46
   3   0  11  793.54    8.27
   3   0  11  769.59    7.31
   3   0  11  773.53    6.84
  -3   0 -11  801.72    7.11
   3   0  11  795.19    7.85
  -3   0 -11  759.27    6.62
  -3   0 -11  791.17   11.99
  -3   0 -11  811.88   12.72
   3   0  12   66.40    1.75
  -3   0 -12   62.85    1.48
  -3   0 -12   63.07    1.62
   3   0  12   61.10    1.72
  -3   0 -12   61.75    3.26
  -3   0 -12   64.48    1.66
   3   0  12   63.43    1.93
   3   0  13   35.91    1.22
   3   0  13   37.04    1.33
  -3   0 -13   35.23    1.05
   3   0  13   37.27    1.25
  -3   0 -13   37.49    1.19
  -3   0 -13   37.08    1.13
   3   0  14   15.66    0.74
  -3   0 -14   16.69    0.61
   3   0  14   17.53    0.77
  -3   0 -14   17.74    0.75
  -3   0 -14   17.10    0.68
  -3   0 -14   17.23    0.70
   3   0  14   18.57    0.84
  -3   0 -15   46.53    0.96
   3   0  15   40.40    0.90
   3   0  15   45.73    1.02
  -3   0 -15   43.98    0.88
   3   0  15   39.87    0.84
   3   1 -14    0.60    0.33
  -3  -1  14    0.21    0.32
   3   1 -14    0.34    0.25
   3   1 -14    0.77    0.33
  -3  -1  14    0.51    0.28
  -3  -1  14    0.39    0.34
  -3  -1  13  798.87    6.63
   3   1 -13  773.60    6.48
   3   1 -13  812.07    6.67
  -3  -1  13  830.28    6.54
  -3  -1  13  824.60    6.66
   3   1 -13  798.72    6.56
  -3  -1  13  767.32    6.36
  -3  -1  12  100.29    2.09
   3   1 -12  100.20    2.06
   3   1 -12  105.28    2.15
  -3  -1  12  102.53    2.05
   3   1 -12   99.39    2.06
   3   1 -12   94.08    1.86
  -3  -1  12  102.66    2.11
   3   1 -12  100.06    2.06
  -3  -1  12   95.73    1.95
  -3  -1  11   50.02    1.54
  -3  -1  11   50.29    1.56
   3   1 -11   49.28    1.56
   3   1 -11   50.48    1.57
   3   1 -11   49.51    1.54
   3   1 -11   47.16    1.36
   3   1 -11   47.37    1.41
  -3  -1  11   50.13    1.55
   3   1 -11   51.17    1.55
  -3  -1  11   48.75    1.47
  -3  -1  10    9.19    0.69
  -3  -1  10    9.27    0.74
   3   1 -10   11.29    0.81
   3   1 -10    9.59    0.76
   3   1 -10    9.47    0.75
   3   1 -10    9.84    0.76
  -3  -1  10    9.25    0.73
   3   1 -10    9.79    0.78
   3   1 -10    9.80    0.73
   3   1 -10    8.22    0.65
   3   1  -9    0.16    0.35
  -3  -1   9    0.28    0.36
   3   1  -9    0.39    0.33
  -3  -1   9   -0.13    0.37
   3   1  -9    0.49    0.37
   3   1  -9    0.10    0.33
  -3  -1   9    0.07    0.33
   3   1  -9    0.31    0.38
  -3  -1   9    0.02    0.30
   3   1  -9   -0.33    0.31
   3   1  -9    0.46    0.37
  -3  -1   8  275.96    3.62
  -3  -1   8  263.32    6.60
   3   1  -8  295.30    3.87
   3   1  -8  285.29    3.79
  -3  -1   8  280.04    3.72
   3   1  -8  287.72    3.73
   3   1  -8  284.54    3.63
  -3  -1   8  291.07    3.27
  -3  -1   8  290.26    3.48
   3   1  -8  287.49    3.73
   3   1  -8  276.02    3.68
  -3  -1   7   65.25    3.04
   3   1  -7   66.88    1.63
   3   1  -7   67.86    1.60
  -3  -1   7   65.80    1.41
  -3  -1   6   59.36    2.70
  -3  -1   6   56.33    1.24
  -3  -1   6   59.20    1.30
   3   1  -6   57.96    1.42
   3   1  -6   59.14    1.46
  -3  -1   5  446.74    4.03
   3   1  -5  456.51    6.60
  -3  -1   5  448.47    3.98
  -3  -1   5  446.05    6.24
   3   1  -5  454.05    4.30
   3   1  -4  579.83    7.40
  -3  -1   4  579.10    4.69
  -3  -1   4  584.61    4.66
  -3  -1   4  574.52    7.09
  -3  -1   4  567.87    6.45
   3   1  -3   20.45    1.29
  -3  -1   3   17.73    0.66
  -3  -1   3   18.72    1.21
  -3  -1   3   16.41    1.09
   3   1  -2  881.45    9.15
  -3  -1   2  871.40    8.77
  -3  -1   1 1178.84   10.03
   3   1  -1 1171.26   10.82
  -3  -1   0  542.94    6.08
   3   1   0  523.13    7.67
  -3  -1   0  525.17    6.36
  -3  -1   0  543.25    6.26
   3   1   1  300.23    5.57
  -3  -1  -1  308.72    4.66
  -3  -1  -1  297.71    4.36
  -3  -1  -1  300.69    4.35
   3   1   2  858.97   10.11
  -3  -1  -2  846.11    8.26
  -3  -1  -3  543.30    6.65
   3   1   3  551.56    8.03
  -3  -1  -3  551.64    6.82
  -3  -1  -3  542.67    6.27
   3   1   4  438.04    7.33
  -3  -1  -4  434.52    6.14
   3   1   5  139.35    4.21
  -3  -1  -5  135.13    3.46
  -3  -1  -5  135.03    3.41
  -3  -1  -5  135.46    3.81
  -3  -1  -5  133.15    3.70
   3   1   6  271.61    6.33
  -3  -1  -6  269.40    4.97
  -3  -1  -6  268.64    5.79
  -3  -1  -6  267.93    5.59
  -3  -1  -6  263.36    5.19
  -3  -1  -6  271.80    5.36
  -3  -1  -6  248.15    2.79
  -3  -1  -7   11.39    0.63
   3   1   7   10.71    1.39
  -3  -1  -7   11.58    1.30
  -3  -1  -7   10.27    1.22
  -3  -1  -7    9.98    1.19
   3   1   8    6.04    1.14
  -3  -1  -8    6.40    1.07
  -3  -1  -8    6.14    1.10
  -3  -1  -8    6.88    0.54
  -3  -1  -8    5.43    0.95
   3   1   9   61.88    1.79
   3   1   9   56.58    1.87
   3   1   9   51.41    3.22
  -3  -1  -9   58.87    3.08
   3   1   9   56.78    1.88
  -3  -1  -9   59.69    1.52
  -3  -1  -9   59.42    1.52
   3   1   9   58.19    1.49
   3   1   9   59.28    1.86
   3   1   9   58.13    1.63
   3   1   9   56.83    1.51
   3   1   9   55.72    1.35
  -3  -1 -10   17.94    0.88
   3   1  10   16.04    1.11
   3   1  10   14.21    1.89
   3   1  10   17.25    0.97
  -3  -1 -10   17.73    1.86
   3   1  10   17.42    0.89
   3   1  10   18.50    1.07
  -3  -1 -10   18.02    0.88
   3   1  10   16.31    0.88
   3   1  10   17.70    1.11
  -3  -1 -10   18.22    1.76
  -3  -1 -11   21.98    0.94
   3   1  11   21.10    1.25
   3   1  11   21.30    1.10
  -3  -1 -11   23.25    2.09
  -3  -1 -11   23.89    2.12
   3   1  11   22.14    1.18
  -3  -1 -11   21.07    0.96
  -3  -1 -11   21.58    0.96
   3   1  11   21.45    1.25
   3   1  11   19.79    0.97
  -3  -1 -11   21.92    1.96
   3   1  12    5.26    0.60
  -3  -1 -12    5.48    0.55
  -3  -1 -12    5.56    0.51
   3   1  12    5.30    0.77
  -3  -1 -12    4.92    0.54
   3   1  12    4.69    0.63
  -3  -1 -12    5.24    0.59
   3   1  12    5.66    0.74
  -3  -1 -12    5.73    0.63
  -3  -1 -12    6.01    1.19
   3   1  13  193.84    2.82
  -3  -1 -13  187.11    2.63
  -3  -1 -13  195.55    2.79
   3   1  13  193.77    2.98
  -3  -1 -13  190.86    2.81
   3   1  13  190.05    3.25
  -3  -1 -14    4.36    0.39
   3   1  14    3.06    0.44
  -3  -1 -14    3.82    0.41
   3   1  14    4.07    0.48
  -3  -1 -14    3.80    0.42
   3   1  14    3.74    0.52
  -3  -1 -14    3.39    0.42
   3   1  15    0.40    0.25
  -3  -1 -15    0.02    0.20
   3   1  15    0.01    0.28
   3   1  15    0.21    0.31
  -3  -1 -15    0.20    0.28
   3   2 -14   39.46    0.94
  -3  -2  14   38.60    0.85
  -3  -2  14   39.46    0.93
  -3  -2  14   41.12    0.93
  -3  -2  13   51.86    1.26
  -3  -2  13   50.18    1.28
   3   2 -13   49.45    1.25
   3   2 -13   50.79    1.27
  -3  -2  13   49.98    1.21
  -3  -2  13   43.31    1.05
   3   2 -13   44.27    1.01
   3   2 -13   48.19    1.17
  -3  -2  12  238.94    3.20
  -3  -2  12  239.78    3.24
   3   2 -12  238.82    3.27
   3   2 -12  236.68    3.27
  -3  -2  12  227.59    2.99
   3   2 -12  221.56    2.99
   3   2 -12  230.01    2.91
  -3  -2  12  247.09    3.19
  -3  -2  12  227.19    3.04
   3   2 -12  231.58    3.07
  -3  -2  11   68.91    1.80
   3   2 -11   68.83    1.84
   3   2 -11   67.80    1.70
   3   2 -11   69.80    1.84
   3   2 -11   67.14    1.75
  -3  -2  11   68.65    1.71
   3   2 -11   66.95    1.65
  -3  -2  11   71.35    1.79
  -3  -2  11   70.35    1.79
  -3  -2  11   66.52    1.71
   3   2 -11   67.44    1.71
  -3  -2  10  288.38    3.95
   3   2 -10  295.46    3.80
   3   2 -10  296.14    4.06
   3   2 -10  299.42    4.01
   3   2 -10  290.46    3.85
  -3  -2  10  286.46    3.83
   3   2 -10  294.61    3.89
  -3  -2  10  287.12    3.92
  -3  -2  10  294.51    3.95
   3   2 -10  283.31    3.81
  -3  -2  10  285.52    3.79
  -3  -2   9    3.55    0.54
   3   2  -9    3.41    0.50
   3   2  -9    3.92    0.57
   3   2  -9    3.76    0.57
   3   2  -9    3.61    0.54
  -3  -2   9    4.37    0.52
   3   2  -9    3.82    0.56
  -3  -2   9    6.74    0.63
  -3  -2   9    3.40    0.54
   3   2  -9    3.67    0.53
  -3  -2   9    4.51    0.57
   3   2  -9    3.90    0.55
  -3  -2   9    6.55    0.60
  -3  -2   8  134.06    2.50
  -3  -2   8  126.50    4.88
   3   2  -8  137.97    2.65
   3   2  -8  142.68    4.54
   3   2  -8  136.31    2.59
   3   2  -8  137.24    2.52
   3   2  -8  130.31    2.47
  -3  -2   8  135.07    2.53
   3   2  -8  137.16    2.53
  -3  -2   8  139.11    2.39
  -3  -2   8  127.67    2.45
  -3  -2   8  128.67    2.47
   3   2  -8  133.49    2.47
   3   2  -7  518.72    5.26
   3   2  -7  534.64    5.31
   3   2  -7  516.68    8.71
   3   2  -6  182.75    2.73
   3   2  -6  183.84    2.74
  -3  -2   6  183.51    2.44
  -3  -2   5    5.51    0.98
  -3  -2   5    4.78    0.42
   3   2  -5    5.44    0.49
   3   2  -5    5.90    0.45
   3   2  -4    4.11    0.62
  -3  -2   4    5.29    0.91
  -3  -2   4    5.17    0.42
   3   2  -4    5.05    0.45
   3   2  -4    4.68    0.72
  -3  -2   4    6.17    0.45
   3   2  -3  526.36    6.73
  -3  -2   3  509.28    7.13
  -3  -2   3  505.89    6.05
  -3  -2   3  530.93    4.36
   3   2  -3  511.91    6.35
   3   2  -3  529.32    4.65
  -3  -2   3  532.82    4.35
  -3  -2   2  123.44    2.92
  -3  -2   2  125.21    2.77
  -3  -2   2  122.90    1.72
   3   2  -2  127.32    2.78
   3   2  -1 1094.47   12.16
  -3  -2   1 1105.13    9.67
  -3  -2   1 1194.29   10.32
  -3  -2   1 1165.86    7.67
   3   2  -1 1107.94    9.80
  -3  -2   1 1115.16   10.11
   3   2   0  484.44    7.27
  -3  -2   0  486.55    5.34
  -3  -2   0  485.24    6.08
   3   2   0  481.75    5.72
  -3  -2   0  492.70    5.97
  -3  -2  -1  301.38    4.62
  -3  -2  -1  302.32    5.05
   3   2   2   29.74    1.75
  -3  -2  -2   30.91    1.50
  -3  -2  -2   34.36    1.66
  -3  -2  -2   31.98    1.40
   3   2   3  248.74    5.12
  -3  -2  -3  264.35    4.83
  -3  -2  -3  251.27    4.26
   3   2   4  199.28    4.73
  -3  -2  -4  201.11    4.04
  -3  -2  -4  205.23    4.36
   3   2   5    7.05    1.07
  -3  -2  -5    5.79    0.81
  -3  -2  -5    5.36    0.86
  -3  -2  -5    5.74    0.85
  -3  -2  -6  514.22    7.44
  -3  -2  -6  509.75    8.06
  -3  -2  -6  512.44    7.95
  -3  -2  -6  508.68    7.38
  -3  -2  -6  500.98    4.49
   3   2   6  496.02    8.60
  -3  -2  -7   18.13    1.46
   3   2   7   17.20    1.73
  -3  -2  -7   15.92    1.47
  -3  -2  -7   17.39    1.57
  -3  -2  -7   17.35    0.77
  -3  -2  -7   16.23    0.71
   3   2   8   30.43    2.41
  -3  -2  -8   31.65    2.14
  -3  -2  -8   35.07    1.14
  -3  -2  -8   31.08    2.01
  -3  -2  -8   31.29    1.00
   3   2   9   15.00    0.97
   3   2   9   13.32    1.70
  -3  -2  -9   16.43    0.86
  -3  -2  -9   14.96    1.56
   3   2   9   15.63    1.02
   3   2   9   15.53    0.88
   3   2   9   16.71    0.95
  -3  -2  -9   15.93    0.84
   3   2   9   15.72    0.79
   3   2   9   15.98    1.00
   3   2   9   15.07    1.00
  -3  -2  -9   15.91    1.51
   3   2  10  103.17    2.58
   3   2  10   89.57    4.45
   3   2  10   99.32    2.55
   3   2  10  103.20    2.40
  -3  -2 -10  103.16    4.23
  -3  -2 -10  103.34    2.13
  -3  -2 -10  103.54    2.12
   3   2  10   99.20    2.04
   3   2  10  101.41    2.50
  -3  -2 -10   98.82    3.79
  -3  -2 -10  104.39    2.06
   3   2  10   99.44    2.23
  -3  -2 -11    4.63    0.56
   3   2  11    3.03    0.61
   3   2  11    3.60    0.57
  -3  -2 -11    4.61    1.08
   3   2  11    3.23    0.58
  -3  -2 -11    4.03    0.54
  -3  -2 -11    4.06    1.00
   3   2  11    2.78    0.45
  -3  -2 -11    3.59    0.52
   3   2  11    3.61    0.65
  -3  -2 -11    3.30    0.81
  -3  -2 -11    3.69    0.46
   3   2  12    0.92    0.37
  -3  -2 -12    0.76    0.39
  -3  -2 -12    0.95    0.34
   3   2  12    0.08    0.48
  -3  -2 -12    0.30    0.60
  -3  -2 -12    0.82    0.40
   3   2  12    1.44    0.53
   3   2  12    0.84    0.43
  -3  -2 -12    0.49    0.36
   3   2  12    0.36    0.35
  -3  -2 -12    0.31    0.36
   3   2  13  596.73    5.49
  -3  -2 -13  625.93    5.68
  -3  -2 -13  603.77    5.44
   3   2  13  625.64    5.99
  -3  -2 -13  618.77    5.70
   3   2  13  645.79    6.42
   3   2  13  588.79    5.56
  -3  -2 -13  627.02    5.72
   3   2  13  631.34    6.70
   3   2  13  600.66    5.84
   3   2  14   15.33    0.68
  -3  -2 -14   15.23    0.70
  -3  -2 -14   15.48    0.73
  -3  -2 -14   14.89    0.63
  -3  -2 -14   16.19    0.73
  -3  -2 -14   16.18    0.77
   3   2  14   15.44    0.79
   3   2  14   16.22    0.89
   3   2  14   15.52    0.71
  -3  -2 -15  105.16    1.48
  -3  -2 -15  108.35    1.59
   3   2  15  104.91    1.66
  -3  -2 -15  111.77    1.64
   3   2  15  108.91    1.69
   3   3 -14    1.61    0.27
  -3  -3  13   21.03    0.77
   3   3 -13   21.15    0.78
   3   3 -13   20.14    0.74
  -3  -3  13   21.08    0.73
  -3  -3  13   18.79    0.66
   3   3 -13   18.68    0.63
  -3  -3  12    9.93    0.67
   3   3 -12   10.06    0.61
   3   3 -12   10.24    0.66
  -3  -3  12    9.49    0.61
   3   3 -12    9.09    0.60
   3   3 -12    9.49    0.60
  -3  -3  12   10.25    0.67
   3   3 -12    9.98    0.68
  -3  -3  12    9.85    0.65
   3   3 -12   10.22    0.59
  -3  -3  11   13.45    0.83
   3   3 -11   13.90    0.88
   3   3 -11   14.52    0.87
  -3  -3  11   15.02    0.87
   3   3 -11   13.91    0.80
  -3  -3  11   14.22    0.82
   3   3 -11   13.71    0.81
   3   3 -11   14.37    0.79
  -3  -3  11   14.03    0.83
  -3  -3  11   12.47    0.75
   3   3 -11   13.04    0.73
  -3  -3  10  317.46    4.13
   3   3 -10  322.72    4.27
   3   3 -10  322.80    4.14
  -3  -3  10  323.30    4.12
   3   3 -10  312.55    3.94
  -3  -3  10  317.41    4.02
  -3  -3  10  325.74    4.14
   3   3 -10  321.68    4.11
   3   3 -10  314.62    4.01
  -3  -3  10  315.28    4.05
   3   3 -10  304.25    3.81
  -3  -3   9   52.41    1.61
   3   3  -9   55.75    1.69
   3   3  -9   52.52    1.60
   3   3  -9   50.49    1.51
  -3  -3   9   54.82    1.47
  -3  -3   9   53.24    1.61
   3   3  -9   54.14    1.64
   3   3  -9   55.42    1.60
   3   3  -9   47.31    1.39
  -3  -3   9   52.34    1.60
  -3  -3   9   52.75    1.60
  -3  -3   9   50.02    1.53
   3   3  -9   51.57    1.49
  -3  -3   8   29.14    1.20
  -3  -3   8   29.38    2.53
   3   3  -8   29.73    1.24
   3   3  -8   28.86    1.20
  -3  -3   8   29.55    1.20
   3   3  -8   29.14    1.14
  -3  -3   8   30.12    1.14
  -3  -3   8   29.77    1.21
   3   3  -8   30.34    1.23
   3   3  -8   29.60    1.11
  -3  -3   8   28.44    1.14
  -3  -3   8   28.72    1.18
   3   3  -8   29.68    1.13
  -3  -3   7   42.45    1.37
  -3  -3   7   46.27    2.94
   3   3  -7   43.59    1.46
   3   3  -7   43.94    1.42
  -3  -3   7   43.14    1.39
   3   3  -7   42.55    1.32
  -3  -3   7   46.53    1.38
  -3  -3   7   42.16    1.40
   3   3  -7   44.38    1.42
   3   3  -7   44.69    1.32
  -3  -3   7   41.78    1.36
   3   3  -7   39.78    1.27
  -3  -3   6  152.03    5.16
   3   3  -6  153.68    2.54
  -3  -3   5    1.42    0.75
  -3  -3   5    2.66    0.34
   3   3  -5    1.21    0.56
   3   3  -5    1.69    0.34
   3   3  -5    1.61    0.38
  -3  -3   4   53.48    2.68
  -3  -3   4   57.42    1.24
   3   3  -4   57.80    2.38
   3   3  -4   55.52    1.41
   3   3  -4   56.47    1.36
   3   3  -3  615.55    7.46
  -3  -3   3  598.00    8.61
  -3  -3   3  606.76    4.99
   3   3  -3  610.92    7.86
   3   3  -3  615.00    5.38
   3   3  -3  618.39    5.28
  -3  -3   2   15.53    1.22
  -3  -3   2   14.22    0.62
  -3  -3   2   15.08    1.14
   3   3  -2   15.80    1.14
   3   3  -2   15.98    0.69
   3   3  -2   17.34    0.71
   3   3  -1   27.43    1.38
  -3  -3   1   29.82    1.54
  -3  -3   1   29.97    0.85
  -3  -3   1   31.07    1.61
   3   3   0  212.03    4.61
  -3  -3   0  212.09    3.90
  -3  -3   0  214.93    2.41
  -3  -3   0  222.82    4.39
   3   3   0  220.02    4.11
  -3  -3   0  205.68    3.24
   3   3   0  211.62    3.81
   3   3   1  185.11    3.57
   3   3   1  177.47    4.20
  -3  -3  -1  183.83    3.23
  -3  -3  -1  185.21    2.17
  -3  -3  -1  194.97    4.16
   3   3   1  189.98    3.85
   3   3   2   54.98    2.32
  -3  -3  -2   54.26    1.08
  -3  -3  -2   54.24    2.21
  -3  -3  -2   50.58    1.81
   3   3   3   46.73    2.24
  -3  -3  -3   49.93    2.20
  -3  -3  -3   48.85    1.87
   3   3   4  256.11    5.43
  -3  -3  -4  275.81    5.32
  -3  -3  -4  263.03    5.08
  -3  -3  -4  268.83    2.97
   3   3   5  294.33    6.23
  -3  -3  -5  315.60    5.86
  -3  -3  -5  302.34    5.66
  -3  -3  -5  310.15    5.77
  -3  -3  -5  303.10    5.11
  -3  -3  -5  302.40    3.30
   3   3   6  236.73    5.82
  -3  -3  -6  242.96    5.32
  -3  -3  -6  248.37    5.34
  -3  -3  -6  251.23    5.45
  -3  -3  -6  246.82    4.83
  -3  -3  -6  245.26    2.98
  -3  -3  -6  243.16    2.97
  -3  -3  -7  214.37    5.21
  -3  -3  -7  211.04    5.31
  -3  -3  -7  214.05    2.83
  -3  -3  -7  215.10    4.72
  -3  -3  -7  204.16    2.79
   3   3   8   91.27    4.09
  -3  -3  -8   91.86    3.55
  -3  -3  -8   97.26    1.94
  -3  -3  -8   91.40    1.82
   3   3   9   19.30    0.98
   3   3   9   20.76    1.10
   3   3   9   19.36    2.06
  -3  -3  -9   16.97    1.68
  -3  -3  -9   21.32    0.97
   3   3   9   19.90    1.12
  -3  -3  -9   21.64    1.00
  -3  -3  -9   21.58    0.95
   3   3   9   20.30    1.10
   3   3   9   19.21    1.10
  -3  -3  -9   21.46    0.94
  -3  -3  -9   20.50    1.81
   3   3  10    0.89    0.44
  -3  -3 -10    0.43    0.62
   3   3  10    0.41    0.40
   3   3  10    1.63    0.51
  -3  -3 -10    0.63    0.39
  -3  -3 -10    0.48    0.39
   3   3  10    0.21    0.31
  -3  -3 -10    0.56    0.34
   3   3  10    0.70    0.44
  -3  -3 -10    0.39    0.29
  -3  -3 -10    0.69    0.59
  -3  -3 -11    8.40    0.70
   3   3  11    7.98    0.86
   3   3  11    8.74    0.80
  -3  -3 -11    8.81    0.66
  -3  -3 -11    7.90    1.26
   3   3  11    7.28    0.69
  -3  -3 -11    6.65    0.67
  -3  -3 -11    7.91    1.27
   3   3  11    7.36    0.64
   3   3  11    8.24    0.82
  -3  -3 -11    8.26    0.67
  -3  -3 -11    8.06    0.65
  -3  -3 -11    7.76    0.67
  -3  -3 -12   14.42    0.86
  -3  -3 -12   14.24    0.84
  -3  -3 -12   13.58    0.84
   3   3  12   12.84    0.98
   3   3  12   15.25    0.98
   3   3  12   13.27    0.87
  -3  -3 -12   13.29    0.78
   3   3  12   15.57    1.01
   3   3  12   15.43    0.82
  -3  -3 -12   13.45    1.59
  -3  -3 -12   12.93    0.75
  -3  -3 -12   16.62    0.87
  -3  -3 -13    1.10    0.43
  -3  -3 -13    0.88    0.36
   3   3  13    0.75    0.52
  -3  -3 -13    1.21    0.34
   3   3  13    1.11    0.54
   3   3  13    0.88    0.37
  -3  -3 -13    1.28    0.38
   3   3  13    1.06    0.42
   3   3  13    0.44    0.40
  -3  -3 -14    7.76    0.57
  -3  -3 -14    8.08    0.55
   3   3  14    7.74    0.72
  -3  -3 -14    8.25    0.62
   3   3  14    7.77    0.61
  -3  -3 -14    7.69    0.53
   3   3  14    7.75    0.67
  -3  -3 -14    7.99    0.51
  -3  -3 -14    7.94    0.55
  -3  -3 -14    8.52    0.58
   3   3  14    8.31    0.61
  -3  -3 -15   13.72    0.59
   3   3  15   14.56    0.62
  -3  -3 -15   14.32    0.62
   3   3  15   13.92    0.63
   3   3  15   13.31    0.69
  -3  -3 -15   14.42    0.61
   3   3  15   14.00    0.57
   3   4 -13   20.63    0.66
  -3  -4  13   20.85    0.61
  -3  -4  13   19.06    0.57
   3   4 -13   18.60    0.55
   3   4 -12    5.27    0.47
   3   4 -12    3.89    0.41
   3   4 -12    4.82    0.44
  -3  -4  12    4.26    0.45
  -3  -4  12    4.31    0.43
   3   4 -12    4.18    0.42
  -3  -4  11   26.30    1.03
  -3  -4  11   27.36    0.92
  -3  -4  11   26.07    1.01
   3   4 -11   25.27    1.04
   3   4 -11   26.27    0.98
  -3  -4  11   27.47    1.06
   3   4 -11   25.64    0.99
   3   4 -11   25.56    0.98
  -3  -4  11   26.00    0.98
  -3  -4  10   45.15    1.45
  -3  -4  10   46.17    1.37
   3   4 -10   45.07    1.49
   3   4 -10   45.37    1.39
  -3  -4  10   43.81    1.41
   3   4 -10   44.72    1.41
   3   4 -10   44.46    1.38
   3   4 -10   37.69    1.19
  -3  -4  10   46.72    1.45
  -3  -4  10   45.08    1.40
   3   4 -10   38.51    1.13
  -3  -4   9  246.56    3.63
   3   4  -9  253.29    3.74
  -3  -4   9  258.16    3.67
   3   4  -9  249.75    3.53
   3   4  -9  244.28    3.33
  -3  -4   9  256.33    3.68
   3   4  -9  263.84    3.69
   3   4  -9  260.65    3.61
   3   4  -9  232.60    3.30
  -3  -4   9  250.65    3.52
  -3  -4   8  467.59    5.30
   3   4  -8  484.61    5.45
   3   4  -8  476.85    5.23
  -3  -4   8  473.55    5.35
   3   4  -8  461.37    4.92
  -3  -4   8  483.48    5.39
   3   4  -8  493.49    5.32
   3   4  -8  499.89    5.45
   3   4  -8  463.34    5.04
  -3  -4   8  470.75    5.17
  -3  -4   7  267.55    3.77
  -3  -4   7  265.07    7.63
   3   4  -7  287.09    3.98
   3   4  -7  271.93    3.73
   3   4  -7  266.05    3.50
  -3  -4   7  276.69    3.89
   3   4  -7  293.10    3.91
   3   4  -7  284.35    3.84
   3   4  -7  278.54    3.68
  -3  -4   7  283.12    3.67
  -3  -4   7  264.88    3.78
  -3  -4   7  267.23    3.70
  -3  -4   6    2.62    0.43
  -3  -4   6    2.32    0.92
  -3  -4   6    2.49    0.88
   3   4  -6    2.59    0.46
   3   4  -6    2.68    0.77
   3   4  -6    2.75    0.45
   3   4  -6    2.01    0.33
  -3  -4   6    2.58    0.41
  -3  -4   6    2.43    0.44
   3   4  -6    3.22    0.47
   3   4  -6    3.20    0.46
   3   4  -6    2.56    0.49
  -3  -4   6    5.00    0.50
  -3  -4   6    3.00    0.45
  -3  -4   6    2.67    0.46
  -3  -4   5    7.62    1.28
   3   4  -5    7.54    1.10
   3   4  -5    9.27    0.68
   3   4  -5    9.23    0.66
  -3  -4   4   68.05    3.30
   3   4  -4   73.52    2.97
   3   4  -4   73.30    1.71
   3   4  -4   72.09    1.68
  -3  -4   3   12.16    1.37
   3   4  -3   13.34    1.26
   3   4  -3   12.41    0.70
   3   4  -3   12.29    0.70
  -3  -4   2  316.26    6.16
   3   4  -2  318.43    3.64
   3   4  -2  334.26    6.00
   3   4  -2  329.96    3.64
   3   4  -1   47.02    2.08
  -3  -4   1   51.56    2.28
  -3  -4   1   52.79    2.18
   3   4  -1   53.10    2.29
   3   4  -1   51.60    1.29
  -3  -4   0  599.16    8.01
  -3  -4   0  608.00    8.14
   3   4   0  623.89    8.19
   3   4   0  620.25    5.32
   3   4   0  606.70    7.88
   3   4   1  502.11    7.36
  -3  -4  -1  499.91    7.10
  -3  -4  -1  525.08    7.54
   3   4   1  517.50    7.44
   3   4   1  512.00    7.09
   3   4   2  274.63    5.16
   3   4   2  280.28    5.42
  -3  -4  -2  283.65    5.53
   3   4   2  292.61    5.45
  -3  -4  -2  283.14    4.80
   3   4   3   29.68    1.80
  -3  -4  -3   32.70    1.91
  -3  -4  -3   33.37    1.66
  -3  -4  -4  854.95   10.76
  -3  -4  -4  864.16    9.96
  -3  -4  -4  857.98    6.74
   3   4   5  482.01    8.15
  -3  -4  -5  514.13    7.46
  -3  -4  -5  492.12    7.60
  -3  -4  -5  500.00    4.77
  -3  -4  -5  504.26    4.56
  -3  -4  -6   34.78    1.11
   3   4   6   31.62    2.14
  -3  -4  -6   36.66    2.00
  -3  -4  -6   35.76    2.09
  -3  -4  -6   36.94    1.08
  -3  -4  -7   90.24    1.81
  -3  -4  -7   90.08    1.86
   3   4   8  792.33    7.51
  -3  -4  -8  790.65   10.95
   3   4   8  788.37    7.64
  -3  -4  -8  824.62    6.99
  -3  -4  -8  803.02    6.90
  -3  -4  -8  817.51    7.14
  -3  -4  -8  818.75    7.12
  -3  -4  -8  838.00   12.00
   3   4   9  258.88    3.94
   3   4   9  222.05    6.71
  -3  -4  -9  248.11    6.10
  -3  -4  -9  261.69    3.51
  -3  -4  -9  268.06    3.64
  -3  -4  -9  259.76    3.57
   3   4   9  240.78    3.86
  -3  -4  -9  265.60    3.46
  -3  -4  -9  268.32    6.68
   3   4   9  249.30    3.92
  -3  -4  -9  269.64    3.58
   3   4  10   52.03    1.59
  -3  -4 -10   52.61    1.46
   3   4  10   52.49    1.79
  -3  -4 -10   52.23    1.52
   3   4  10   50.54    1.75
  -3  -4 -10   52.47    1.57
  -3  -4 -10   52.46    1.55
   3   4  10   52.04    1.74
  -3  -4 -10   51.13    2.78
  -3  -4 -10   53.80    1.58
  -3  -4 -10   53.04    1.47
  -3  -4 -10   52.54    2.98
  -3  -4 -11   11.69    0.79
   3   4  11   11.98    0.94
   3   4  11   11.26    0.88
  -3  -4 -11   12.21    1.46
   3   4  11   12.20    0.83
   3   4  11   11.71    0.89
  -3  -4 -11   10.69    0.70
  -3  -4 -11   11.79    0.81
   3   4  11   12.56    0.77
   3   4  11   11.46    0.88
  -3  -4 -11   12.09    0.75
  -3  -4 -11   11.57    0.79
  -3  -4 -12   34.63    1.26
  -3  -4 -12   33.12    1.24
   3   4  12   33.50    1.45
  -3  -4 -12   31.39    1.13
   3   4  12   32.96    1.26
  -3  -4 -12   31.60    1.08
   3   4  12   35.72    1.40
   3   4  12   33.50    1.15
   3   4  12   31.04    1.33
  -3  -4 -12   32.58    1.19
  -3  -4 -13  138.09    2.40
  -3  -4 -13  133.37    2.30
  -3  -4 -13  128.49    2.17
  -3  -4 -13  137.94    2.40
   3   4  13  130.95    2.36
  -3  -4 -13  124.65    2.06
   3   4  13  138.23    2.59
   3   4  13  130.56    2.15
   3   4  13  133.92    2.68
  -3  -4 -14   32.89    1.05
  -3  -4 -14   32.02    0.99
   3   4  14   31.03    1.21
   3   4  14   29.50    1.06
  -3  -4 -14   33.79    1.06
   3   4  14   31.31    1.04
   3   4  14   33.03    1.15
  -3  -4 -14   32.09    0.96
   3   4  14   30.90    0.95
  -3  -4 -15   63.01    1.07
  -3  -4 -15   68.18    1.27
  -3  -4 -15   64.77    1.14
  -3  -4 -15   71.60    1.30
   3   4  15   67.29    1.28
   3   4  15   66.97    1.37
   3   4  15   65.42    1.17
   3   4  15   65.67    1.26
   3   5 -12   68.11    1.19
  -3  -5  12   66.37    1.17
   3   5 -12   63.26    1.14
  -3  -5  12   71.62    1.21
   3   5 -12   67.51    1.15
   3   5 -11    1.06    0.31
   3   5 -11    0.67    0.33
   3   5 -11    1.12    0.28
  -3  -5  11    1.41    0.39
  -3  -5  11    1.21    0.36
   3   5 -11    0.97    0.33
  -3  -5  10    5.03    0.49
   3   5 -10    4.31    0.51
   3   5 -10    4.88    0.56
   3   5 -10    4.87    0.49
  -3  -5  10    4.87    0.57
  -3  -5  10    4.62    0.54
   3   5 -10    4.65    0.53
   3   5 -10    4.25    0.53
   3   5 -10    3.78    0.42
  -3  -5   9   83.94    1.97
  -3  -5   9   89.46    1.96
   3   5  -9   85.13    1.99
   3   5  -9   84.51    1.83
  -3  -5   9   89.18    2.03
   3   5  -9   89.99    1.99
   3   5  -9   87.14    1.96
  -3  -5   9   88.02    2.04
   3   5  -9   79.22    1.78
  -3  -5   9   80.75    1.69
  -3  -5   8  668.81    6.47
   3   5  -8  651.83    6.41
   3   5  -8  615.58    6.02
  -3  -5   8  646.37    6.44
   3   5  -8  654.15    6.38
   3   5  -8  653.92    6.34
  -3  -5   8  663.96    6.50
   3   5  -8  627.52    6.14
  -3  -5   8  636.45    6.35
  -3  -5   8  622.57    5.91
  -3  -5   7   52.98    1.62
  -3  -5   7   56.60    1.71
   3   5  -7   55.84    1.68
   3   5  -7   51.66    1.52
  -3  -5   7   53.34    1.68
   3   5  -7   53.67    1.66
   3   5  -7   56.47    1.64
   3   5  -7   55.36    1.61
  -3  -5   7   54.63    1.67
  -3  -5   7   53.63    1.53
  -3  -5   6   10.91    0.78
   3   5  -6   13.71    0.86
   3   5  -6   10.90    0.72
   3   5  -6   12.38    1.45
  -3  -5   6   11.48    0.83
   3   5  -6   12.33    0.85
   3   5  -6   12.96    0.83
   3   5  -6   11.73    0.81
  -3  -5   6   11.73    0.83
  -3  -5   6   12.29    0.79
  -3  -5   5  121.57    2.39
   3   5  -5  133.67    2.51
   3   5  -5  122.05    2.28
   3   5  -5  132.38    4.49
  -3  -5   5  123.54    2.44
  -3  -5   5  129.57    2.55
   3   5  -5  128.84    2.48
   3   5  -5  129.21    2.46
   3   5  -5  126.37    2.45
  -3  -5   5  128.60    2.41
  -3  -5   4   28.80    2.37
  -3  -5   4   33.64    1.26
   3   5  -4   31.20    1.16
  -3  -5   4   29.29    1.14
   3   5  -4   30.06    2.10
   3   5  -4   30.51    1.17
   3   5  -4   32.16    1.18
   3   5  -4   31.99    1.20
  -3  -5   4   30.86    1.15
  -3  -5   3   35.06    2.46
   3   5  -3   37.35    2.24
   3   5  -3   38.27    1.24
   3   5  -3   37.70    1.25
  -3  -5   2   83.17    3.49
   3   5  -2   91.85    3.36
   3   5  -2   89.82    1.90
   3   5  -1  166.56    4.50
  -3  -5   1  174.33    4.85
   3   5  -1  182.52    4.71
   3   5  -1  176.58    2.67
  -3  -5   0  273.68    5.86
   3   5   0  286.99    5.84
   3   5   0  272.73    3.41
   3   5   0  272.32    5.63
  -3  -5  -1  340.99    6.43
   3   5   1  352.14    6.53
   3   5   1  335.53    6.30
  -3  -5  -1  338.23    3.59
   3   5   1  355.26    3.98
   3   5   2   46.55    2.38
   3   5   2   44.26    2.24
  -3  -5  -2   47.19    1.23
   3   5   2   45.70    1.31
   3   5   3   54.32    1.39
  -3  -5  -3   54.56    1.36
   3   5   3   52.88    1.43
   3   5   4  450.43    4.63
  -3  -5  -4  452.60    4.14
  -3  -5  -4  444.81    4.54
   3   5   5   39.80    2.33
   3   5   5   42.36    1.31
  -3  -5  -5   44.88    1.16
   3   5   5   42.11    1.14
  -3  -5  -5   45.80    1.32
   3   5   6   59.65    2.99
  -3  -5  -6   66.10    1.51
   3   5   6   65.59    1.49
  -3  -5  -6   67.39    1.65
  -3  -5  -6   73.53    3.31
  -3  -5  -6   67.77    1.53
   3   5   7  374.34    4.63
  -3  -5  -7  378.17    4.41
  -3  -5  -7  371.47    4.14
  -3  -5  -7  371.42    4.13
  -3  -5  -7  396.52    4.49
  -3  -5  -7  376.96    4.33
  -3  -5  -7  383.97    4.47
  -3  -5  -7  399.98    8.16
   3   5   8   21.70    1.09
  -3  -5  -8   20.63    0.94
  -3  -5  -8   23.46    0.99
   3   5   8   18.91    0.86
  -3  -5  -8   21.92    0.98
  -3  -5  -8   21.80    1.01
  -3  -5  -8   20.70    1.00
  -3  -5  -8   22.35    1.03
  -3  -5  -8   22.65    2.04
   3   5   8   23.49    1.04
  -3  -5  -9    4.00    0.51
   3   5   9    3.91    0.57
   3   5   9    2.69    0.93
   3   5   9    3.34    0.54
  -3  -5  -9    4.22    0.53
  -3  -5  -9    3.83    0.48
  -3  -5  -9    4.15    0.55
  -3  -5  -9    4.07    0.55
  -3  -5  -9    4.64    0.54
  -3  -5  -9    4.48    1.05
   3   5   9    3.69    0.51
  -3  -5 -10    3.07    0.50
  -3  -5 -10    3.45    0.51
   3   5  10    2.95    0.58
   3   5  10    3.44    0.56
   3   5  10    3.09    0.51
  -3  -5 -10    3.25    0.51
  -3  -5 -10    3.52    0.44
  -3  -5 -10    3.86    0.53
  -3  -5 -10    3.00    0.44
  -3  -5 -10    3.51    0.49
  -3  -5 -11  199.55    3.10
  -3  -5 -11  205.12    3.15
   3   5  11  197.87    3.48
  -3  -5 -11  198.45    3.11
   3   5  11  187.99    3.28
   3   5  11  201.83    3.17
  -3  -5 -11  197.25    2.82
   3   5  11  194.36    3.30
  -3  -5 -11  199.92    3.18
  -3  -5 -11  198.12    2.94
  -3  -5 -12    8.61    0.68
  -3  -5 -12    8.12    0.67
   3   5  12    8.20    0.81
   3   5  12    9.75    0.72
   3   5  12    8.49    0.76
  -3  -5 -12    8.48    0.59
   3   5  12    8.93    0.63
   3   5  12    7.58    0.66
  -3  -5 -12    7.71    0.56
  -3  -5 -13    0.38    0.35
   3   5  13    0.29    0.40
  -3  -5 -13    0.41    0.35
  -3  -5 -13    0.50    0.38
   3   5  13    0.36    0.42
   3   5  13    0.43    0.31
  -3  -5 -13    0.62    0.29
   3   5  13    0.82    0.38
  -3  -5 -14    0.57    0.34
   3   5  14    0.56    0.34
  -3  -5 -14    0.36    0.30
   3   5  14    0.30    0.32
  -3  -5 -14    0.44    0.23
   3   5  14    0.75    0.36
   3   5  14    0.34    0.28
   3   5  14    0.12    0.37
  -3  -5 -15   40.09    0.92
   3   5  15   39.19    0.93
   3   5  15   38.59    0.98
   3   5  15   40.43    0.98
  -3  -5 -15   38.42    0.74
   3   6 -11   36.80    0.83
   3   6 -11   35.26    0.89
   3   6 -11   39.41    0.93
  -3  -6  11   42.38    0.95
  -3  -6  11   33.20    0.75
  -3  -6  11   38.07    0.92
   3   6 -11   39.40    0.89
  -3  -6  10    0.08    0.23
   3   6 -10    0.49    0.27
   3   6 -10    0.31    0.33
   3   6 -10    0.42    0.32
  -3  -6  10    0.19    0.33
  -3  -6  10    0.39    0.34
   3   6 -10    0.14    0.29
  -3  -6   9   71.89    1.60
   3   6  -9   65.77    1.54
   3   6  -9   71.61    1.70
  -3  -6   9   73.62    1.71
  -3  -6   9   70.97    1.68
   3   6  -9   69.55    1.60
   3   6  -9   60.57    1.47
  -3  -6   9   64.51    1.40
  -3  -6   8   16.27    0.88
   3   6  -8   14.07    0.79
   3   6  -8   15.72    0.93
  -3  -6   8   15.67    0.92
  -3  -6   8   16.71    0.94
   3   6  -8   14.81    0.83
   3   6  -8   15.04    0.85
   3   6  -8   13.72    0.79
  -3  -6   8   13.72    0.78
  -3  -6   7  170.68    2.97
  -3  -6   7  174.81    2.99
   3   6  -7  161.39    2.75
   3   6  -7  168.29    2.98
  -3  -6   7  163.91    2.94
   3   6  -7  164.34    2.81
   3   6  -7  166.73    2.79
   3   6  -7  162.93    2.80
  -3  -6   7  161.06    2.71
  -3  -6   6  406.91    5.00
   3   6  -6  407.76    4.73
  -3  -6   6  405.83    4.96
  -3  -6   6  419.71    5.00
   3   6  -6  419.02    4.83
   3   6  -6  413.69    4.75
   3   6  -6  416.60    4.86
  -3  -6   6  416.24    4.76
  -3  -6   5  115.18    2.49
   3   6  -5  119.20    2.35
   3   6  -5  118.94    2.53
   3   6  -5  108.10    4.24
  -3  -6   5  116.27    2.45
  -3  -6   5  119.27    2.50
   3   6  -5  114.43    2.37
   3   6  -5  113.83    2.32
   3   6  -5  117.44    2.43
  -3  -6   5  116.59    2.38
  -3  -6   4   19.15    1.03
  -3  -6   4   17.63    2.06
   3   6  -4   20.44    0.97
   3   6  -4   20.27    1.07
   3   6  -4   20.70    1.04
   3   6  -4   20.09    1.82
  -3  -6   4   19.89    1.04
  -3  -6   4   21.49    1.08
   3   6  -4   19.99    0.99
   3   6  -4   20.22    0.97
  -3  -6   4   19.36    1.01
   3   6  -3  151.42    2.70
  -3  -6   3  139.56    5.26
  -3  -6   3  146.30    2.73
   3   6  -3  149.41    2.76
   3   6  -3  142.05    4.74
  -3  -6   3  146.77    2.67
  -3  -6   3  147.99    2.72
   3   6  -3  146.70    2.54
  -3  -6   3  150.71    2.64
  -3  -6   3  150.14    2.67
   3   6  -2   39.20    2.43
  -3  -6   2   40.38    2.75
  -3  -6   2   43.46    1.43
   3   6  -2   44.40    1.46
   3   6  -2   47.20    1.56
   3   6  -2   43.42    2.60
  -3  -6   2   45.59    1.42
   3   6  -2   46.31    1.43
  -3  -6   2   43.55    1.44
   3   6  -2   43.46    1.30
  -3  -6   2   43.57    1.39
  -3  -6   2   44.12    1.40
  -3  -6   1  137.69    4.78
   3   6  -1  148.71    4.64
   3   6  -1  149.14    2.57
   3   6  -1  140.43    4.45
  -3  -6   0   96.93    3.87
   3   6   0   96.82    3.72
   3   6   0   96.61    2.02
   3   6   0   93.97    3.58
   3   6   0   97.98    2.12
   3   6   1    4.96    0.96
  -3  -6  -1    4.50    0.93
   3   6   1    5.51    0.97
   3   6   1    4.26    0.49
   3   6   2    5.83    1.02
  -3  -6  -2    5.53    1.01
   3   6   2    5.28    0.98
   3   6   2    6.06    0.54
  -3  -6  -2    5.51    0.47
  -3  -6  -2    6.88    0.94
   3   6   2    5.70    0.55
   3   6   3   35.89    1.22
  -3  -6  -3   33.64    1.12
  -3  -6  -3   34.25    2.11
   3   6   3   34.79    1.24
  -3  -6  -4    3.26    0.82
   3   6   4    3.16    0.44
  -3  -6  -4    3.19    0.43
   3   6   5   48.07    1.48
   3   6   5   44.92    1.43
   3   6   5   48.74    1.50
   3   6   5   45.17    1.28
  -3  -6  -5   48.48    1.46
  -3  -6  -5   48.02    1.46
  -3  -6  -5   46.74    2.68
   3   6   6   92.35    2.13
   3   6   6   89.78    2.08
   3   6   6   92.17    2.13
  -3  -6  -6   92.47    1.80
   3   6   6   92.09    1.87
  -3  -6  -6   92.49    2.06
  -3  -6  -6   94.76    2.11
  -3  -6  -6   90.96    1.97
  -3  -6  -6   95.67    2.12
  -3  -6  -6   96.61    3.99
   3   6   6   92.77    1.93
  -3  -6  -6   91.45    2.00
   3   6   7   79.71    2.01
  -3  -6  -7   77.32    1.73
  -3  -6  -7   79.30    1.95
  -3  -6  -7   81.02    1.76
   3   6   7   77.69    1.66
   3   6   7   77.28    1.76
  -3  -6  -7   78.75    1.92
  -3  -6  -7   77.92    1.89
  -3  -6  -7   81.05    1.98
  -3  -6  -7   83.38    3.86
   3   6   7   77.86    1.83
  -3  -6  -8  226.95    3.28
   3   6   8  226.40    3.55
  -3  -6  -8  223.33    3.16
   3   6   8  209.59    2.97
  -3  -6  -8  226.23    3.42
  -3  -6  -8  233.95    3.50
  -3  -6  -8  231.75    3.48
  -3  -6  -8  222.56    6.46
  -3  -6  -8  225.78    3.19
  -3  -6  -8  229.50    3.40
   3   6   8  218.17    3.26
  -3  -6  -9    0.28    0.32
   3   6   9    0.16    0.43
  -3  -6  -9    0.12    0.35
  -3  -6  -9    0.28    0.35
  -3  -6  -9    0.05    0.32
  -3  -6  -9   -0.08    0.32
  -3  -6  -9    0.19    0.39
   3   6   9    1.50    0.43
  -3  -6 -10  192.15    2.99
  -3  -6 -10  192.38    3.04
   3   6  10  187.97    3.33
  -3  -6 -10  189.27    2.97
  -3  -6 -10  191.25    3.14
  -3  -6 -10  193.55    3.10
  -3  -6 -11   52.40    1.49
  -3  -6 -11   52.44    1.53
   3   6  11   52.16    1.74
   3   6  11   54.47    1.56
   3   6  11   50.52    1.56
  -3  -6 -11   53.41    1.44
  -3  -6 -11   52.88    1.58
  -3  -6 -12   90.21    1.88
  -3  -6 -12   91.06    1.93
   3   6  12   91.88    2.12
  -3  -6 -12   91.64    1.84
   3   6  12   90.71    1.92
   3   6  12   94.24    2.08
   3   6  12   87.82    1.90
  -3  -6 -13    1.30    0.37
   3   6  13    1.21    0.38
  -3  -6 -13    0.84    0.37
   3   6  13    0.61    0.39
  -3  -6 -13    1.35    0.34
   3   6  13    1.19    0.39
   3   6  13    1.11    0.33
  -3  -6 -14   20.82    0.76
   3   6  14   19.90    0.82
  -3  -6 -14   21.42    0.72
   3   6  14   21.64    0.82
   3   6  14   21.21    0.69
   3   6  14   21.55    0.78
   3   6  14   19.81    0.83
  -3  -6 -15    6.48    0.36
   3   6  15    6.38    0.40
   3   6  15    6.88    0.42
   3   6  15    7.00    0.46
   3   7 -10    3.32    0.31
   3   7 -10    4.19    0.39
   3   7 -10    4.07    0.38
  -3  -7  10    3.97    0.34
  -3  -7  10    3.79    0.40
  -3  -7   9    2.77    0.34
   3   7  -9    2.70    0.30
   3   7  -9    2.88    0.41
   3   7  -9    3.02    0.41
  -3  -7   9    3.26    0.44
  -3  -7   9    2.86    0.43
   3   7  -9    2.82    0.36
  -3  -7   9    2.89    0.37
  -3  -7   8   11.89    0.69
   3   7  -8   10.04    0.57
   3   7  -8   11.18    0.72
   3   7  -8   11.64    0.71
  -3  -7   8   10.75    0.60
  -3  -7   8   12.09    0.74
  -3  -7   8   12.64    0.75
   3   7  -8   11.66    0.66
   3   7  -8   10.24    0.63
  -3  -7   8   11.31    0.65
  -3  -7   7   43.14    1.38
   3   7  -7   38.94    1.17
   3   7  -7   42.59    1.36
   3   7  -7   43.63    1.44
  -3  -7   7   44.57    1.34
  -3  -7   7   45.05    1.43
  -3  -7   7   43.51    1.42
   3   7  -7   40.18    1.23
   3   7  -7   40.46    1.29
  -3  -7   7   42.15    1.29
  -3  -7   6    7.02    0.68
   3   7  -6    5.28    0.95
   3   7  -6    7.48    0.61
   3   7  -6    6.93    0.56
   3   7  -6    7.83    0.71
   3   7  -6    7.59    0.73
  -3  -7   6    7.54    0.74
  -3  -7   6    7.16    0.69
   3   7  -6    7.27    0.65
  -3  -7   6    7.79    0.68
   3   7  -5   11.14    1.39
  -3  -7   5   12.48    0.87
  -3  -7   5   13.14    0.89
   3   7  -5   12.16    0.86
   3   7  -5   13.17    0.92
  -3  -7   5   12.32    0.88
   3   7  -5   11.63    0.75
   3   7  -5   12.88    0.85
  -3  -7   5   11.58    0.68
  -3  -7   5   12.58    0.87
  -3  -7   4    0.91    0.45
   3   7  -4   -0.47    0.65
   3   7  -4    0.59    0.44
   3   7  -4    1.92    0.51
  -3  -7   4    0.90    0.47
  -3  -7   4    0.15    0.48
   3   7  -4    0.52    0.35
   3   7  -4    0.11    0.41
  -3  -7   4    0.70    0.34
  -3  -7   4    0.21    0.41
  -3  -7   3  318.39    4.36
   3   7  -3  330.26    4.53
   3   7  -3  317.68    4.27
   3   7  -3  301.70    7.36
  -3  -7   3  315.18    4.25
  -3  -7   3  321.42    4.31
   3   7  -3  302.55    3.84
   3   7  -3  334.73    4.29
  -3  -7   3  329.58    4.15
  -3  -7   3  315.84    3.81
  -3  -7   3  323.77    4.22
   3   7  -3  308.87    7.11
  -3  -7   2  113.93    2.46
   3   7  -2  117.16    2.55
   3   7  -2  114.08    2.38
   3   7  -2  109.19    4.31
  -3  -7   2  110.77    2.36
  -3  -7   2  118.46    2.55
  -3  -7   2  113.60    2.45
   3   7  -2  119.56    2.43
  -3  -7   2  111.80    2.35
  -3  -7   2  113.54    2.39
   3   7  -2  107.51    4.18
  -3  -7   1   47.47    1.55
  -3  -7   1   46.25    3.07
   3   7  -1   49.08    1.62
   3   7  -1   47.14    1.50
   3   7  -1   47.69    2.83
  -3  -7   1   46.93    1.49
  -3  -7   1   44.31    1.54
   3   7  -1   47.82    1.52
  -3  -7   1   48.26    1.58
  -3  -7   1   46.33    1.51
   3   7  -1   46.74    2.73
  -3  -7   1   45.88    1.49
   3   7  -1   49.69    1.62
  -3  -7   0  282.06    3.88
  -3  -7   0  278.17    7.33
   3   7   0  296.23    4.13
   3   7   0  296.34    4.04
   3   7   0  280.40    3.76
   3   7   0  284.38    6.91
  -3  -7   0  269.81    3.69
  -3  -7   0  285.74    3.99
   3   7   0  280.13    6.69
  -3  -7   0  284.87    3.98
  -3  -7   0  270.41    3.87
   3   7   0  294.22    4.02
  -3  -7  -1   72.78    1.83
   3   7   1   76.56    1.93
  -3  -7  -1   73.69    3.70
   3   7   1   78.92    2.01
  -3  -7  -1   76.82    1.95
   3   7   1   77.68    3.55
  -3  -7  -1   70.40    1.88
   3   7   1   73.75    3.34
  -3  -7  -1   72.29    1.90
  -3  -7  -1   73.53    1.91
   3   7   1   77.62    1.95
   3   7   2   19.76    0.99
   3   7   2   18.76    0.96
  -3  -7  -2   18.78    0.91
  -3  -7  -2   16.21    1.74
   3   7   2   19.79    1.01
  -3  -7  -2   19.33    0.98
   3   7   2   20.28    1.87
   3   7   2   18.29    1.72
  -3  -7  -2   18.81    0.98
   3   7   2   19.76    0.97
  -3  -7  -2   18.11    0.90
  -3  -7  -2   19.16    0.99
   3   7   2   19.69    0.98
   3   7   3   56.86    1.62
   3   7   3   58.40    1.67
  -3  -7  -3   56.54    3.17
   3   7   3   58.34    1.70
  -3  -7  -3   56.99    1.61
   3   7   3   56.37    1.61
  -3  -7  -3   54.50    1.58
  -3  -7  -3   59.68    1.72
  -3  -7  -3   54.44    1.56
   3   7   3   59.06    1.68
  -3  -7  -3   57.75    1.65
   3   7   4  206.22    3.20
   3   7   4  223.36    3.38
   3   7   4  224.70    3.40
   3   7   4  214.74    3.27
  -3  -7  -4  203.80    3.11
  -3  -7  -4  209.50    3.27
  -3  -7  -4  214.08    3.34
   3   7   4  219.58    3.40
  -3  -7  -4  205.59    3.23
  -3  -7  -4  203.64    5.65
  -3  -7  -5   23.67    1.06
   3   7   5   25.95    1.14
   3   7   5   25.07    1.11
   3   7   5   25.90    1.13
   3   7   5   26.46    1.17
   3   7   5   25.17    1.02
  -3  -7  -5   26.56    1.15
  -3  -7  -5   24.84    1.13
  -3  -7  -5   23.66    2.04
  -3  -7  -5   25.33    1.13
   3   7   6    6.64    0.64
   3   7   6    6.77    0.62
   3   7   6    6.04    0.63
   3   7   6    5.70    0.50
   3   7   6    6.76    0.59
  -3  -7  -6    6.06    0.58
  -3  -7  -6    5.94    1.09
  -3  -7  -6    5.67    0.60
  -3  -7  -6    6.31    0.61
  -3  -7  -6    6.17    0.63
  -3  -7  -6    6.71    0.65
   3   7   6    7.49    0.60
   3   7   7    9.27    0.77
   3   7   7    8.42    0.74
   3   7   7    9.38    0.62
   3   7   7    7.89    0.66
  -3  -7  -7   10.47    0.78
  -3  -7  -7    8.87    0.70
  -3  -7  -7    9.09    0.68
  -3  -7  -7    9.45    0.76
  -3  -7  -7    7.29    1.28
   3   7   7    8.63    0.60
   3   7   7    8.77    0.66
  -3  -7  -8   16.43    0.85
   3   7   8   19.66    1.05
   3   7   8   15.84    0.80
  -3  -7  -8   16.35    0.96
  -3  -7  -8   15.20    0.88
  -3  -7  -8   15.54    0.95
   3   7   8   16.53    0.80
   3   7   8   15.86    0.89
  -3  -7  -9  257.72    3.51
   3   7   9  274.36    3.34
   3   7   9  272.22    3.95
  -3  -7  -9  271.10    3.84
   3   7   9  245.16    3.26
  -3  -7  -9  278.46    3.81
  -3  -7  -9  260.12    3.72
   3   7   9  259.69    3.62
  -3  -7 -10   20.73    0.89
  -3  -7 -10   20.63    0.96
   3   7  10   20.91    1.10
  -3  -7 -10   22.12    1.01
  -3  -7 -11    5.38    0.51
  -3  -7 -11    5.44    0.53
   3   7  11    5.25    0.61
   3   7  11    5.67    0.58
  -3  -7 -11    5.30    0.51
  -3  -7 -12    5.99    0.49
  -3  -7 -12    5.17    0.51
   3   7  12    7.04    0.61
   3   7  12    6.58    0.58
  -3  -7 -12    5.94    0.46
   3   7  12    6.64    0.63
  -3  -7 -12    5.93    0.46
  -3  -7 -13    0.24    0.25
   3   7  13    0.25    0.28
  -3  -7 -13    0.19    0.22
   3   7  13    0.63    0.33
   3   7  13    0.63    0.27
   3   7  13    1.26    0.34
   3   7  14   12.55    0.56
  -3  -7 -14   13.39    0.49
   3   7  14   13.80    0.57
   3   7  14   13.13    0.56
   3   7  14   13.26    0.48
   3   7  14   13.53    0.64
  -3  -7 -14   14.62    0.58
   3   8  -9    0.28    0.22
   3   8  -9    0.24    0.24
  -3  -8   9    0.39    0.28
  -3  -8   8    0.60    0.26
   3   8  -8    0.83    0.30
   3   8  -8    0.82    0.29
   3   8  -8    0.85    0.30
  -3  -8   8    1.16    0.33
  -3  -8   8    0.34    0.32
   3   8  -8    0.54    0.26
  -3  -8   7    8.45    0.57
   3   8  -7    8.45    0.58
   3   8  -7    7.87    0.54
  -3  -8   7    8.81    0.53
  -3  -8   7    8.27    0.61
   3   8  -7    7.79    0.47
  -3  -8   7    7.96    0.59
   3   8  -7    6.86    0.50
   3   8  -7    8.03    0.56
  -3  -8   6   32.38    1.16
   3   8  -6   31.14    1.13
   3   8  -6   32.52    1.08
  -3  -8   6   32.62    1.12
  -3  -8   6   33.27    1.18
   3   8  -6   28.66    0.93
  -3  -8   6   32.35    1.16
  -3  -8   6   32.28    1.15
   3   8  -6   30.67    1.08
  -3  -8   6   31.98    1.10
   3   8  -6   29.63    1.09
  -3  -8   5    0.63    0.41
   3   8  -5    0.41    0.36
  -3  -8   5    0.27    0.36
   3   8  -5    0.29    0.37
  -3  -8   5    0.34    0.46
  -3  -8   5    0.15    0.40
   3   8  -5    0.29    0.29
   3   8  -5    0.71    0.37
  -3  -8   5    0.33    0.42
  -3  -8   5    0.21    0.41
   3   8  -4    1.29    0.51
  -3  -8   4    1.02    0.47
   3   8  -4    0.86    0.40
  -3  -8   4    2.26    0.51
   3   8  -4    1.46    0.45
  -3  -8   4    2.74    0.54
  -3  -8   4    1.32    0.48
   3   8  -4    1.22    0.33
   3   8  -4    1.48    0.46
  -3  -8   4    0.92    0.48
  -3  -8   4    0.90    0.52
   3   8  -4    1.24    0.48
  -3  -8   3  642.06    6.59
   3   8  -3  661.40    6.58
   3   8  -3  643.56    6.25
  -3  -8   3  648.98    6.68
  -3  -8   3  641.64    6.47
  -3  -8   3  663.36    6.64
   3   8  -3  662.83    6.43
  -3  -8   3  651.18    6.42
  -3  -8   3  674.71    6.64
   3   8  -3  669.10    6.70
   3   8  -2    0.24    0.62
  -3  -8   2   -0.10    0.44
   3   8  -2    0.20    0.35
  -3  -8   2    0.45    0.43
   3   8  -2    0.35    0.37
  -3  -8   2    0.41    0.43
  -3  -8   2   -0.06    0.43
   3   8  -2    0.47    0.42
  -3  -8   2    0.18    0.36
  -3  -8   2    0.45    0.43
   3   8  -2    0.28    0.42
  -3  -8   1  261.13    3.83
  -3  -8   1  251.95    3.81
   3   8  -1  265.30    3.79
   3   8  -1  264.93    3.93
   3   8  -1  251.81    3.52
  -3  -8   1  265.15    3.97
   3   8  -1  249.98    6.47
  -3  -8   1  250.52    3.69
  -3  -8   1  259.82    3.83
   3   8  -1  268.53    3.90
  -3  -8   0   19.78    1.05
   3   8   0   19.22    0.99
   3   8   0   20.09    1.08
  -3  -8   0   19.66    1.08
  -3  -8   0   19.06    1.04
  -3  -8   0   17.30    1.03
   3   8   0   18.56    1.83
  -3  -8   0   18.65    1.02
   3   8   0   19.11    1.04
   3   8   1  287.40    3.98
   3   8   1  279.23    3.89
  -3  -8  -1  276.32    3.91
   3   8   1  296.64    4.10
  -3  -8  -1  285.27    4.09
  -3  -8  -1  277.73    3.94
   3   8   1  283.45    6.99
   3   8   1  276.57    3.89
  -3  -8  -1  267.28    3.94
   3   8   1  291.71    4.04
   3   8   2   48.19    1.50
   3   8   2   48.85    1.57
  -3  -8  -2   46.44    1.49
   3   8   2   49.38    1.58
  -3  -8  -2   48.90    1.60
   3   8   2   49.38    2.89
   3   8   2   47.97    1.54
  -3  -8  -2   45.32    1.43
  -3  -8  -2   47.12    1.59
  -3  -8  -2   47.34    1.55
   3   8   2   47.81    1.58
   3   8   3   48.45    1.48
   3   8   3   50.14    1.59
  -3  -8  -3   47.28    1.45
   3   8   3   51.90    1.61
  -3  -8  -3   49.82    1.59
   3   8   3   50.75    1.62
   3   8   3   47.28    1.54
  -3  -8  -3   47.29    1.50
  -3  -8  -3   48.37    1.61
  -3  -8  -3   47.37    1.48
   3   8   3   49.11    1.60
   3   8   4  228.09    3.49
   3   8   4  228.56    3.44
  -3  -8  -4  220.78    3.34
   3   8   4  228.92    3.53
  -3  -8  -4  215.72    3.40
  -3  -8  -4  224.45    3.55
  -3  -8  -4  212.09    3.36
   3   8   4  228.34    3.46
   3   8   5  279.85    3.92
   3   8   5  275.51    3.83
   3   8   5  291.02    3.99
   3   8   5  279.26    3.96
   3   8   5  273.24    3.61
  -3  -8  -5  271.54    3.89
  -3  -8  -5  276.43    3.92
  -3  -8  -5  261.10    3.83
   3   8   6   11.02    0.80
   3   8   6   10.74    0.81
   3   8   6   10.87    0.65
   3   8   6   10.48    0.72
  -3  -8  -6   10.99    0.81
  -3  -8  -6   10.81    0.79
  -3  -8  -6   10.17    0.79
   3   8   6   11.57    0.75
   3   8   7   32.35    1.29
   3   8   7   31.52    1.30
   3   8   7   32.22    1.07
   3   8   7   30.42    1.18
  -3  -8  -7   32.85    1.32
  -3  -8  -7   31.10    1.22
  -3  -8  -7   31.23    1.30
   3   8   7   29.77    1.04
   3   8   7   33.30    1.20
   3   8   8    9.68    0.77
   3   8   8    9.32    0.64
  -3  -8  -8    9.28    0.76
  -3  -8  -8    8.40    0.66
   3   8   8    8.94    0.61
   3   8   8    9.18    0.69
  -3  -8  -9   20.31    0.86
   3   8   9   23.03    1.08
   3   8   9   19.98    0.86
  -3  -8  -9   22.93    1.08
   3   8   9   23.22    0.89
   3   8   9   21.17    0.98
   3   8  10  141.65    2.52
  -3  -8 -10  143.32    2.48
   3   8  11   80.53    1.77
   3   8  11   81.10    1.67
  -3  -8 -11   78.37    1.65
   3   8  12   77.78    1.57
   3   8  12   77.46    1.50
   3   8  12   79.27    1.56
  -3  -8 -12   76.16    1.41
   3   8  13   27.18    0.78
   3   8  13   28.05    0.79
   3   8  13   29.05    0.81
   3   8  13   28.63    0.68
   3   9  -7    0.98    0.27
   3   9  -7    1.24    0.28
   3   9  -7    0.75    0.25
  -3  -9   7    1.09    0.31
  -3  -9   7    0.70    0.29
  -3  -9   6   16.50    0.69
   3   9  -6   14.85    0.63
   3   9  -6   14.92    0.66
  -3  -9   6   16.42    0.68
  -3  -9   6   15.79    0.61
  -3  -9   6   16.15    0.69
   3   9  -6   14.46    0.63
  -3  -9   5   18.57    0.82
  -3  -9   5   18.55    0.80
   3   9  -5   17.12    0.74
   3   9  -5   17.07    0.78
   3   9  -5   16.07    0.66
  -3  -9   5   18.01    0.79
  -3  -9   5   18.66    0.80
   3   9  -5   16.90    0.76
  -3  -9   4   36.21    1.22
   3   9  -4   34.99    1.10
   3   9  -4   35.19    1.18
   3   9  -4   32.62    0.99
  -3  -9   4   37.29    1.23
  -3  -9   4   37.02    1.21
  -3  -9   4   37.62    1.19
   3   9  -4   35.30    1.16
  -3  -9   3  298.78    3.72
  -3  -9   3  288.01    3.81
   3   9  -3  287.14    3.54
   3   9  -3  285.69    3.73
  -3  -9   3  294.78    3.84
  -3  -9   3  296.72    3.75
   3   9  -3  291.65    3.70
   3   9  -2    1.74    0.71
  -3  -9   2    1.81    0.50
   3   9  -2    1.83    0.44
   3   9  -2    1.82    0.39
  -3  -9   2    2.33    0.53
  -3  -9   2    1.90    0.48
  -3  -9   2    1.77    0.45
  -3  -9   2    2.65    0.44
   3   9  -2    3.15    0.54
   3   9  -1  110.32    2.17
  -3  -9   1  117.87    2.42
   3   9  -1  112.73    2.34
  -3  -9   1  112.34    2.42
   3   9  -1  106.81    4.03
   3   9  -1  106.17    2.24
  -3  -9   1  109.46    2.21
   3   9  -1  113.86    2.31
  -3  -9   1  111.65    2.29
   3   9   0    7.69    1.20
   3   9   0    7.78    0.70
   3   9   0    7.73    0.61
  -3  -9   0    7.60    0.71
   3   9   0    7.67    0.68
  -3  -9   0    7.74    0.78
   3   9   0    7.55    0.69
  -3  -9   0    8.50    0.72
  -3  -9   0    7.81    0.68
   3   9   0    7.84    0.72
   3   9   1  199.23    2.98
   3   9   1  206.27    3.21
  -3  -9  -1  196.51    3.16
   3   9   1  209.82    3.23
  -3  -9  -1  203.79    3.36
   3   9   1  200.77    3.20
  -3  -9  -1  194.43    3.22
   3   9   1  205.54    3.24
  -3  -9  -1  198.46    3.17
   3   9   2    8.92    0.72
   3   9   2    8.52    0.68
  -3  -9  -2    8.91    0.77
   3   9   2    7.93    0.72
   3   9   2    8.04    0.71
  -3  -9  -2    9.38    0.77
   3   9   2    8.61    0.74
   3   9   3   43.81    1.47
   3   9   3   45.82    1.43
  -3  -9  -3   45.39    1.50
   3   9   3   44.50    1.50
   3   9   3   43.38    1.47
  -3  -9  -3   43.58    1.38
  -3  -9  -3   44.12    1.53
  -3  -9  -4  439.18    5.13
   3   9   4  437.46    4.84
  -3  -9  -4  435.64    4.91
   3   9   4  435.58    4.96
   3   9   4  444.21    5.07
  -3  -9  -4  421.60    4.86
   3   9   4  425.42    4.67
  -3  -9  -5    0.09    0.38
   3   9   5    0.21    0.39
   3   9   5    0.06    0.41
   3   9   5    0.24    0.29
   3   9   5    0.35    0.36
  -3  -9  -5    0.12    0.44
   3   9   5    0.24    0.34
   3   9   6   42.53    1.40
   3   9   6   43.52    1.46
   3   9   6   43.56    1.16
   3   9   6   41.91    1.31
  -3  -9  -6   42.51    1.43
  -3  -9  -6   42.72    1.45
   3   9   6   42.90    1.31
   3   9   7    5.21    0.57
   3   9   7    5.56    0.48
   3   9   7    7.04    0.61
  -3  -9  -7    5.52    0.62
  -3  -9  -7    4.99    0.57
   3   9   7    4.96    0.47
   3   9   7    5.68    0.55
   3   9   8   49.76    1.43
  -3  -9  -8   45.99    1.34
   3   9   8   45.83    1.17
  -3  -9  -8   49.46    1.50
   3   9   8   47.22    1.19
   3   9   8   46.32    1.32
   3   9   9    0.45    0.32
  -3  -9  -9    0.27    0.40
  -3  -9  -9    0.58    0.29
   3   9   9    0.37    0.30
   3   9   9    0.42    0.35
   3   9  10  419.02    4.26
  -3  -9 -10  433.01    4.33
   3   9  11    1.40    0.32
   3   9  11    1.74    0.35
  -3  -9 -11    1.10    0.33
   3   9  12   16.30    0.60
   3   9  12   15.59    0.58
   3   9  12   15.11    0.48
  -3  -9 -12   15.38    0.55
  -3  -9 -12   16.14    0.59
  -3 -10   5    0.50    0.27
   3  10  -5    0.47    0.25
   3  10  -5    0.38    0.23
   3  10  -4    0.40    0.28
   3  10  -4    0.29    0.25
   3  10  -4    0.91    0.26
  -3 -10   4   -0.06    0.29
   3  10  -4    0.41    0.24
   3  10  -3   59.57    1.30
   3  10  -3   59.30    1.28
  -3 -10   3   63.68    1.39
  -3 -10   3   61.73    1.31
   3  10  -3   58.13    1.25
   3  10  -3   60.73    1.29
   3  10  -2    0.34    0.31
   3  10  -2    0.34    0.27
   3  10  -2    0.33    0.23
  -3 -10   2    0.70    0.37
  -3 -10   2    0.71    0.32
   3  10  -2    0.27    0.27
  -3 -10   2    0.29    0.28
   3  10  -2    0.28    0.28
   3  10  -1   87.52    1.78
   3  10  -1   87.79    1.73
   3  10  -1   90.27    1.77
  -3 -10   1   90.59    1.91
  -3 -10   1   89.87    1.75
   3  10  -1   88.34    1.74
  -3 -10   1   91.18    1.69
  -3 -10   1   93.14    1.72
   3  10   0    0.48    0.34
   3  10   0    0.08    0.26
  -3 -10   0   -0.02    0.37
   3  10   0    0.23    0.31
   3  10   0   -0.03    0.34
  -3 -10   0    0.03    0.32
   3  10   0    0.21    0.30
   3  10   1   11.51    0.72
   3  10   1   10.80    0.65
  -3 -10  -1   11.65    0.79
   3  10   1   10.99    0.73
   3  10   1   10.60    0.68
  -3 -10  -1   10.75    0.72
   3  10   2    0.37    0.38
   3  10   2    0.53    0.34
   3  10   2    0.61    0.29
  -3 -10  -2    0.83    0.38
   3  10   2    0.20    0.35
  -3 -10  -2    0.05    0.40
   3  10   3    8.10    0.63
   3  10   3    6.86    0.52
   3  10   3    8.30    0.64
   3  10   3    7.58    0.65
   3  10   3    7.17    0.55
  -3 -10  -3    7.74    0.68
   3  10   4    6.20    0.57
   3  10   4    6.16    0.49
   3  10   4    6.08    0.60
   3  10   4    6.20    0.43
  -3 -10  -4    5.55    0.51
   3  10   4    6.12    0.53
  -3 -10  -4    6.21    0.67
   3  10   4    6.03    0.51
   3  10   5    4.68    0.49
   3  10   5    4.31    0.53
   3  10   5    4.36    0.38
  -3 -10  -5    4.43    0.49
   3  10   5    3.69    0.44
  -3 -10  -5    4.04    0.55
   3  10   5    4.55    0.47
   3  10   6    2.96    0.44
   3  10   6    3.35    0.36
  -3 -10  -6    3.13    0.47
   3  10   6    3.01    0.40
  -3 -10  -6    3.25    0.42
  -3 -10  -6    2.95    0.48
   3  10   6    3.26    0.37
   3  10   6    3.16    0.42
   3  10   7   55.37    1.15
   3  10   7   57.70    1.39
   3  10   7   53.84    1.13
  -3 -10  -7   57.15    1.44
  -3 -10  -7   58.18    1.42
  -3 -10  -7   55.29    1.17
   3  10   7   57.69    1.33
   3  10   8   11.36    0.61
   3  10   8   10.58    0.50
  -3 -10  -8   11.13    0.66
  -3 -10  -8   10.86    0.61
   3  10   8   10.49    0.60
   3  10   8   10.54    0.51
   3  10   9    3.74    0.37
  -3 -10  -9    3.97    0.44
   3  10   9    4.07    0.33
   3  10   9    4.03    0.41
   3  10  10   16.16    0.57
  -3 -10 -10   18.59    0.70
   3  10  11    0.48    0.25
  -3 -10 -11    0.54    0.28
  -3 -10 -11    0.49    0.27
   3  11  -2   15.30    0.54
   3  11  -2   16.03    0.53
   3  11  -1    9.98    0.50
   3  11  -1    9.79    0.50
  -3 -11   1   10.00    0.44
  -3 -11   1   11.08    0.51
   3  11   0   57.71    1.15
  -3 -11   0   55.42    1.02
   3  11   0   59.59    1.18
   3  11   0   57.11    1.14
  -3 -11   0   60.66    1.14
  -3 -11   0   58.81    1.13
   3  11   1    0.66    0.28
   3  11   1    0.81    0.20
   3  11   1    1.03    0.31
   3  11   1    1.21    0.28
  -3 -11  -1    0.94    0.35
  -3 -11  -1    1.07    0.33
  -3 -11  -1    0.96    0.31
   3  11   2    0.28    0.27
   3  11   2    0.24    0.30
  -3 -11  -2    1.36    0.36
  -3 -11  -2    0.53    0.29
  -3 -11  -2    0.64    0.32
   3  11   2    0.10    0.24
   3  11   3   37.98    0.98
   3  11   3   35.61    0.99
  -3 -11  -3   35.90    1.04
  -3 -11  -3   35.99    0.99
  -3 -11  -3   35.50    0.87
   3  11   3   35.70    0.90
   3  11   4    0.58    0.27
   3  11   4    0.32    0.29
   3  11   4    0.76    0.22
  -3 -11  -4    0.99    0.33
  -3 -11  -4    0.67    0.23
  -3 -11  -4    0.92    0.35
   3  11   4    0.43    0.28
   3  11   5    0.67    0.25
   3  11   5    0.68    0.20
  -3 -11  -5    0.34    0.20
  -3 -11  -5    0.69    0.30
  -3 -11  -5    0.86    0.35
   3  11   5    0.31    0.21
   3  11   5    0.68    0.26
   3  11   6   39.14    0.92
   3  11   6   34.81    0.69
  -3 -11  -6   35.20    0.88
   3  11   6   36.91    0.75
  -3 -11  -6   39.84    1.03
  -3 -11  -6   37.17    0.83
   3  11   6   38.12    0.90
   3  11   7   35.35    0.80
  -3 -11  -7   34.05    0.86
  -3 -11  -7   35.51    0.91
   3  11   7   35.87    0.85
  -3 -11  -8    0.12    0.26
   3  11   8    0.08    0.25
   4 -10  -6    5.28    0.31
   4 -10  -5    6.21    0.37
   4 -10  -5    5.73    0.35
   4 -10  -4   71.16    1.05
   4 -10  -4   55.96    0.90
   4 -10  -3   41.35    0.78
   4 -10  -3   42.26    0.95
   4 -10  -2   42.42    0.75
   4 -10  -2   23.67    0.85
   4 -10  -1   42.67    0.77
   4 -10  -1   37.43    0.93
   4 -10   0   20.08    0.73
  -4   9   9    4.53    0.35
   4  -9  -9    4.95    0.33
   4  -9  -8  293.71    2.48
   4  -9  -8  310.26    2.57
  -4   9   8  290.19    2.56
  -4   9   8  305.32    2.83
   4  -9  -7  150.99    1.74
   4  -9  -7  148.34    1.68
   4  -9  -6   27.70    0.83
   4  -9  -6   25.99    0.76
   4  -9  -6   23.29    0.65
  -4   9   6   23.29    0.77
   4  -9  -5   -0.12    0.35
   4  -9  -5   -0.16    0.27
   4  -9  -4   15.23    0.70
   4  -9  -4   15.39    0.67
   4  -9  -4   15.11    0.61
   4  -9  -3   12.73    0.68
   4  -9  -3   13.62    0.65
   4  -9  -3   13.02    0.57
   4  -9  -2   49.45    1.21
   4  -9  -2   51.65    1.07
   4  -9  -2   48.56    1.09
   4  -9  -2   48.77    1.03
   4  -9  -1  231.28    2.65
   4  -9  -1  186.28    2.15
   4  -9  -1  244.68    2.61
   4  -9  -1  201.71    2.29
   4  -9  -1  228.85    2.33
   4  -9  -1  170.00    2.29
   4  -9   0   75.73    1.21
   4  -9   0   77.42    1.42
   4  -9   1    8.38    0.57
   4  -9   1   10.66    0.89
   4  -9   2   76.89    1.34
   4  -9   2   80.48    1.18
   4  -9   3   80.72    1.25
   4  -9   3   62.87    1.14
   4  -9   4  269.01    2.32
   4  -8 -11    4.96    0.33
  -4   8  11    5.08    0.37
  -4   8  10    3.96    0.42
   4  -8 -10    4.94    0.42
   4  -8  -9   60.00    1.26
   4  -8  -9   65.52    1.04
   4  -8  -9   76.93    1.28
  -4   8   9   86.85    1.39
  -4   8   9   71.25    1.41
  -4   8   9   79.97    1.42
   4  -8  -8   60.85    1.22
  -4   8   8   55.46    1.28
   4  -8  -7  448.24    3.93
  -4   8   7  441.22    4.08
   4  -8  -6  224.58    2.71
  -4   8   6  228.28    2.85
   4  -8  -5   22.19    0.91
   4  -8  -5    2.77    0.41
   4  -8  -4    5.07    0.58
   4  -8  -4    2.01    0.37
   4  -8  -3    1.03    0.47
   4  -8  -3   -0.66    0.53
   4  -8  -2  209.70    2.90
   4  -8  -2  206.85    2.72
   4  -8  -2  205.32    2.71
   4  -8  -2  207.95    2.68
   4  -8  -1  203.56    2.84
   4  -8  -1  206.50    2.75
   4  -8  -1  199.39    2.63
   4  -8  -1  202.63    2.61
   4  -8   0    9.45    0.69
   4  -8   0    9.41    0.58
   4  -8   0    9.24    0.71
   4  -8   0    9.99    0.64
   4  -8   0   11.09    0.63
   4  -8   0   10.75    0.72
   4  -8   1    2.71    0.40
   4  -8   1    3.07    0.41
   4  -8   1    2.60    0.36
   4  -8   1    3.45    0.55
   4  -8   1    2.94    0.52
   4  -8   2   52.55    1.33
   4  -8   2   48.28    1.11
   4  -8   2   51.16    1.28
   4  -8   3  117.60    1.78
   4  -8   3  119.08    2.00
   4  -8   4   42.52    1.07
   4  -8   4   65.10    1.45
   4  -8   5   85.41    1.37
   4  -8   6    7.35    0.40
   4  -7 -12    6.75    0.44
  -4   7  12    4.25    0.26
  -4   7  12    6.56    0.42
   4  -7 -12    6.12    0.39
   4  -7 -12    5.65    0.33
  -4   7  12    4.99    0.31
   4  -7 -11    0.08    0.31
  -4   7  11   -0.08    0.31
   4  -7 -11   -0.10    0.29
   4  -7 -11    0.17    0.29
   4  -7 -10    3.93    0.47
   4  -7 -10    4.24    0.45
  -4   7  10    3.73    0.48
   4  -7 -10    3.89    0.43
   4  -7 -10    4.05    0.51
   4  -7  -9    9.32    0.67
   4  -7  -9   10.75    0.65
   4  -7  -9    8.26    0.60
   4  -7  -9    9.57    0.70
   4  -7  -8  107.73    2.12
   4  -7  -8  120.73    1.96
  -4   7   8  113.92    1.89
  -4   7   8  114.61    2.00
   4  -7  -8  104.07    2.00
   4  -7  -8  109.67    2.21
   4  -7  -7  216.35    3.16
   4  -7  -7  239.58    3.00
  -4   7   7  233.48    3.03
   4  -7  -7  212.45    3.02
   4  -7  -7  220.82    3.26
   4  -7  -6  127.15    2.40
   4  -7  -6  136.81    2.23
  -4   7   6  137.39    2.30
   4  -7  -6  126.59    2.46
   4  -7  -5    7.54    0.65
   4  -7  -5    8.31    0.62
   4  -7  -4    1.43    0.45
  -4   7   4    0.97    0.78
   4  -7  -4    1.58    0.38
   4  -7  -4    1.35    0.39
   4  -7  -3    1.04    0.40
  -4   7   3    0.30    0.79
   4  -7  -3    1.34    0.43
   4  -7  -2   30.39    1.01
   4  -7  -2   33.99    1.17
   4  -7  -2   31.08    1.11
   4  -7  -2   30.44    1.16
   4  -7  -1   64.98    1.63
   4  -7  -1   59.32    1.43
   4  -7  -1   62.75    1.61
   4  -7  -1   60.22    1.49
   4  -7  -1   63.31    1.65
   4  -7  -1   62.37    1.52
   4  -7  -1   65.32    1.65
   4  -7   0   69.17    1.68
   4  -7   0   62.90    1.45
   4  -7   0   66.69    1.66
   4  -7   0   67.18    1.57
   4  -7   0   69.99    1.54
   4  -7   0   68.28    1.58
   4  -7   0   66.84    1.65
   4  -7   0   67.72    1.70
   4  -7   1   42.26    1.32
   4  -7   1   37.58    1.06
   4  -7   1   46.17    1.40
   4  -7   1   41.31    1.22
   4  -7   1   43.90    1.26
   4  -7   1   44.32    1.34
   4  -7   1   40.28    1.22
   4  -7   1   42.54    1.23
   4  -7   1   42.01    1.23
   4  -7   1   45.04    1.35
   4  -7   2  145.56    2.43
   4  -7   2  150.24    2.46
   4  -7   2  142.61    2.20
   4  -7   2  152.55    2.33
   4  -7   2  145.85    2.49
   4  -7   2  136.96    2.34
   4  -7   2  145.70    2.28
   4  -7   2  143.16    2.30
   4  -7   2  147.49    2.41
   4  -7   3    1.01    0.46
   4  -7   3    0.23    0.37
   4  -7   3    0.35    0.40
   4  -7   3    0.41    0.35
   4  -7   3    0.61    0.32
   4  -7   3    0.42    0.34
   4  -7   4  186.72    2.64
   4  -7   4  221.89    2.56
   4  -7   4  176.97    2.71
   4  -7   4  211.16    2.75
   4  -7   4  186.38    2.72
   4  -7   4  182.06    2.54
   4  -7   4  164.02    2.50
   4  -7   4  183.49    2.49
   4  -7   5   14.70    0.73
   4  -7   5   12.88    0.76
   4  -7   5   13.45    0.76
   4  -7   6    2.26    0.38
   4  -7   6    2.01    0.41
   4  -7   6    1.61    0.41
   4  -7   6    2.11    0.35
   4  -7   7    3.68    0.33
   4  -7   7    3.81    0.37
   4  -7   8    0.87    0.32
   4  -7   8    0.61    0.24
   4  -6 -13    0.73    0.30
   4  -6 -13    0.82    0.26
  -4   6  13    0.86    0.28
   4  -6 -13    0.88    0.30
   4  -6 -12   94.16    1.59
   4  -6 -12   87.50    1.47
   4  -6 -12   87.75    1.22
  -4   6  12   92.62    1.51
   4  -6 -12   93.01    1.57
   4  -6 -11    4.22    0.51
   4  -6 -11    3.91    0.45
   4  -6 -11    5.36    0.45
  -4   6  11    4.01    0.48
  -4   6  11    3.44    0.40
   4  -6 -11    4.38    0.48
   4  -6 -11    3.78    0.50
   4  -6 -10    4.00    0.54
   4  -6 -10    3.60    0.47
   4  -6 -10    4.57    0.51
  -4   6  10    4.21    0.55
   4  -6 -10    3.26    0.49
   4  -6 -10    3.27    0.55
   4  -6  -9  126.89    2.41
   4  -6  -9  114.01    2.22
   4  -6  -9  137.63    2.16
  -4   6   9  142.98    2.23
   4  -6  -9  122.68    2.36
  -4   6   9  143.41    2.30
   4  -6  -9  130.42    2.46
   4  -6  -8    0.79    0.43
   4  -6  -8    0.73    0.36
   4  -6  -8    1.50    0.48
  -4   6   8    0.27    0.45
  -4   6   8    0.84    0.48
   4  -6  -8    0.68    0.41
   4  -6  -8    0.97    0.50
   4  -6  -7   15.40    0.92
   4  -6  -7   14.93    0.85
  -4   6   7   13.47    1.49
   4  -6  -7   15.68    0.86
  -4   6   7   15.77    0.87
   4  -6  -7   15.38    0.90
  -4   6   7   14.55    0.77
   4  -6  -7   16.79    1.01
   4  -6  -6  184.88    3.10
   4  -6  -6  190.51    2.46
   4  -6  -6  182.72    3.06
  -4   6   6  186.67    5.29
   4  -6  -6  195.27    2.86
  -4   6   6  196.93    2.86
   4  -6  -6  185.91    3.17
   4  -6  -5    1.52    0.45
  -4   6   5    0.62    0.76
   4  -6  -5    0.97    0.40
   4  -6  -5    1.34    0.44
   4  -6  -5    0.85    0.45
   4  -6  -4    1.10    0.41
   4  -6  -4    1.35    0.47
   4  -6  -4    1.45    0.38
  -4   6   4    0.73    0.71
   4  -6  -4    1.36    0.40
   4  -6  -4    1.26    0.40
   4  -6  -4    1.35    0.45
   4  -6  -3    4.23    0.53
   4  -6  -3    3.51    0.46
   4  -6  -3    4.36    0.53
  -4   6   3    3.34    0.90
  -4   6   3    3.84    0.86
   4  -6  -3    3.82    0.49
   4  -6  -2   37.48    1.15
   4  -6  -2   36.05    1.22
  -4   6   2   35.25    2.29
   4  -6  -2   39.81    1.28
   4  -6  -2   38.92    1.30
   4  -6  -1    2.91    0.46
   4  -6  -1    3.90    0.55
   4  -6  -1    2.53    0.46
  -4   6   1    1.68    0.70
   4  -6  -1    3.87    0.57
   4  -6  -1    3.33    0.44
   4  -6  -1    2.90    0.48
   4  -6   0  137.66    2.40
   4  -6   0  141.08    2.47
   4  -6   0  134.86    2.26
   4  -6   0  135.58    2.30
   4  -6   0  134.28    2.38
   4  -6   0  140.61    2.43
   4  -6   1  196.85    2.93
   4  -6   1  183.11    2.56
   4  -6   1  206.84    2.97
   4  -6   1  193.35    2.74
   4  -6   1  197.21    2.85
   4  -6   1  199.77    2.86
   4  -6   1  197.24    3.01
   4  -6   1  184.62    2.84
   4  -6   1  192.60    2.80
   4  -6   1  208.81    3.00
   4  -6   2  133.45    2.36
   4  -6   2  129.79    2.37
   4  -6   2  123.12    2.10
   4  -6   2  139.84    2.31
   4  -6   2  134.13    2.30
   4  -6   2  132.15    2.47
   4  -6   2  129.60    2.39
   4  -6   2  136.49    2.35
   4  -6   2  128.59    2.29
   4  -6   2  138.70    2.40
   4  -6   3   18.30    0.99
   4  -6   3   15.95    0.88
   4  -6   3   16.24    0.78
   4  -6   3   16.21    0.83
   4  -6   3   15.68    0.89
   4  -6   3   14.98    0.72
   4  -6   3   15.56    0.87
   4  -6   3   15.90    0.83
   4  -6   3   14.13    0.79
   4  -6   3   15.96    0.85
   4  -6   4  305.49    3.70
   4  -6   4  302.61    3.44
   4  -6   4  303.51    3.91
   4  -6   4  315.40    3.53
   4  -6   4  289.24    3.59
   4  -6   4  304.33    3.44
   4  -6   4  313.68    3.91
   4  -6   4  307.60    3.69
   4  -6   4  287.66    3.67
   4  -6   4  306.86    3.55
   4  -6   5  283.78    3.45
   4  -6   5  287.77    3.16
   4  -6   5  279.93    3.72
   4  -6   5  331.49    3.58
   4  -6   5  303.43    3.38
   4  -6   5  306.55    3.83
   4  -6   5  295.69    3.57
   4  -6   5  262.98    3.47
   4  -6   6   10.27    0.64
   4  -6   6    8.79    0.70
   4  -6   6    9.09    0.58
   4  -6   6   10.03    0.74
   4  -6   6    8.91    0.65
   4  -6   7   52.62    1.15
   4  -6   7   51.05    1.40
   4  -6   7   55.60    1.41
   4  -6   8   26.05    0.76
   4  -6   8   31.74    1.01
   4  -6   8   31.53    0.98
   4  -6   8   27.34    0.88
   4  -6   9    0.36    0.32
   4  -6   9    0.44    0.27
   4  -5 -13  149.26    1.87
   4  -5 -13  151.01    1.96
   4  -5 -13  151.87    1.95
  -4   5  13  150.11    1.85
   4  -5 -12   15.92    0.75
   4  -5 -12   16.01    0.76
  -4   5  12   15.51    0.75
  -4   5  12   13.17    0.47
   4  -5 -12   16.04    0.76
   4  -5 -12   13.63    0.57
   4  -5 -12   15.49    0.70
  -4   5  12   14.10    0.61
   4  -5 -11    2.62    0.51
   4  -5 -11    2.43    0.46
   4  -5 -11    2.19    0.39
  -4   5  11    2.13    0.37
   4  -5 -11    2.59    0.52
  -4   5  11    2.24    0.47
   4  -5 -11    2.61    0.48
   4  -5 -10    0.18    0.46
   4  -5 -10    0.28    0.41
   4  -5 -10    0.27    0.40
  -4   5  10   -0.95    0.57
  -4   5  10    0.81    0.45
   4  -5 -10    0.05    0.41
   4  -5 -10    0.87    0.47
   4  -5  -9   23.28    1.12
   4  -5  -9   21.84    1.06
  -4   5   9   16.80    1.53
   4  -5  -9   24.43    0.99
  -4   5   9   27.32    1.06
  -4   5   9   20.04    1.07
   4  -5  -9   22.23    1.09
   4  -5  -9   22.97    1.11
   4  -5  -8  207.56    3.35
   4  -5  -8  200.28    3.29
   4  -5  -8  221.18    3.38
  -4   5   8  202.72    5.46
   4  -5  -8  228.50    3.03
  -4   5   8  194.53    2.80
  -4   5   8  215.79    3.04
   4  -5  -8  209.39    3.36
   4  -5  -8  219.01    3.42
   4  -5  -7    5.99    0.66
   4  -5  -7    5.71    0.63
   4  -5  -7    7.37    0.70
  -4   5   7    6.36    1.11
   4  -5  -7    6.41    0.60
  -4   5   7    3.72    0.44
  -4   5   7    4.83    0.61
  -4   5   7    5.03    0.52
   4  -5  -7    5.59    0.64
   4  -5  -7    6.56    0.69
   4  -5  -6  136.32    2.03
   4  -5  -6  128.12    2.59
   4  -5  -6  129.29    2.57
   4  -5  -6  133.80    2.64
  -4   5   6  134.01    4.47
   4  -5  -6  131.93    2.32
  -4   5   6  130.78    2.29
   4  -5  -6  127.31    2.56
   4  -5  -6  128.72    2.62
   4  -5  -5  106.14    2.31
   4  -5  -5  105.85    1.82
   4  -5  -5   90.86    3.94
   4  -5  -5  106.42    2.26
   4  -5  -5  106.63    2.36
  -4   5   5  110.63    4.05
   4  -5  -5  106.07    2.04
  -4   5   5   86.78    3.24
   4  -5  -5  104.16    2.28
   4  -5  -5  106.45    2.36
   4  -5  -4    0.63    0.38
   4  -5  -4    0.29    0.34
   4  -5  -4   -0.35    0.63
   4  -5  -4    1.19    0.69
   4  -5  -4    0.36    0.32
  -4   5   4   -0.38    0.88
   4  -5  -4    0.50    0.35
  -4   5   4    0.96    0.49
   4  -5  -4    0.58    0.39
   4  -5  -4    0.22    0.39
   4  -5  -3  218.25    3.33
   4  -5  -3  208.68    2.73
   4  -5  -3  233.81    3.00
   4  -5  -3  221.62    2.92
  -4   5   3  223.84    5.58
  -4   5   3  213.71    5.10
   4  -5  -3  213.82    2.90
   4  -5  -3  223.94    3.30
   4  -5  -3  229.67    3.39
   4  -5  -2    0.24    0.34
   4  -5  -2    0.85    0.36
   4  -5  -2    1.27    0.39
   4  -5  -2    1.61    0.82
  -4   5   2   -0.03    0.69
   4  -5  -2    1.50    0.39
   4  -5  -2    1.86    0.41
   4  -5  -1  228.91    3.02
  -4   5   1  220.95    5.32
   4  -5  -1  226.33    3.06
   4  -5  -1  233.56    3.12
   4  -5   0   62.50    1.41
   4  -5   0   69.05    1.62
   4  -5   0   65.33    1.50
  -4   5   0   61.23    2.80
  -4   5   0   63.71    2.75
   4  -5   0   68.70    1.67
   4  -5   0   65.60    1.57
   4  -5   1  320.51    3.71
   4  -5   1  296.66    3.34
   4  -5   1  317.70    3.72
   4  -5   1  319.39    3.60
  -4   5  -1  280.58    6.11
   4  -5   1  327.22    3.70
   4  -5   1  317.31    3.82
   4  -5   1  299.07    3.72
   4  -5   1  325.72    3.80
   4  -5   2  181.63    2.71
   4  -5   2  180.77    2.77
   4  -5   2  179.26    2.59
   4  -5   2  184.71    2.76
   4  -5   2  190.23    2.73
   4  -5   2  186.79    2.88
   4  -5   2  174.43    2.82
   4  -5   2  182.54    2.71
   4  -5   3   24.15    1.00
   4  -5   3   24.70    1.03
   4  -5   3   28.95    1.04
   4  -5   3   25.72    1.02
   4  -5   3   26.19    1.02
   4  -5   3   25.68    1.08
   4  -5   3   26.72    1.11
   4  -5   3   23.96    1.00
   4  -5   3   24.63    0.99
   4  -5   3   26.20    1.03
   4  -5   4 1903.48   13.41
   4  -5   4 1966.35   13.52
   4  -5   4 1757.66   12.71
   4  -5   4 2099.25   13.67
   4  -5   4 2057.68   13.59
   4  -5   4 2023.22   14.14
   4  -5   4 2013.02   13.32
   4  -5   4 2131.58   13.45
   4  -5   4 2052.87   14.12
   4  -5   4 2039.20   13.76
   4  -5   4 1888.53   13.55
   4  -5   4 2028.70   13.37
   4  -5   5  319.91    3.81
   4  -5   5  342.06    3.65
   4  -5   5  335.98    3.85
   4  -5   5  321.73    4.21
   4  -5   5  331.28    3.86
   4  -5   5  326.29    3.74
   4  -5   5  346.34    4.27
   4  -5   5  331.56    3.99
   4  -5   6  168.46    2.51
   4  -5   6  168.33    2.89
   4  -5   6  166.56    2.68
   4  -5   6  170.29    2.59
   4  -5   6  175.58    2.77
   4  -5   7  146.31    2.15
   4  -5   7  138.09    2.54
   4  -5   7  138.67    2.28
   4  -5   7  150.60    2.56
   4  -5   7  139.34    2.39
   4  -5   8  116.76    2.01
   4  -5   8  118.04    2.24
   4  -5   8  123.37    2.18
   4  -5   9    0.39    0.29
   4  -5   9    0.76    0.39
   4  -5   9    0.61    0.37
   4  -5   9    1.75    0.36
   4  -5  10   37.52    0.88
   4  -5  10   34.18    0.77
   4  -5  10   44.18    1.07
   4  -5  10   40.79    0.97
   4  -5  11   17.85    0.58
   4  -4 -14   64.19    1.12
  -4   4  14   62.28    1.03
   4  -4 -14   62.27    1.04
   4  -4 -13  118.91    1.72
  -4   4  13  108.55    1.51
   4  -4 -13  126.71    1.94
  -4   4  13  122.79    1.79
   4  -4 -13  123.01    1.85
  -4   4  13  111.21    1.47
   4  -4 -12  260.44    3.09
   4  -4 -12  272.03    3.33
  -4   4  12  271.53    3.15
   4  -4 -12  269.95    3.24
   4  -4 -11   46.15    1.38
   4  -4 -11   46.89    1.47
  -4   4  11   39.07    1.12
   4  -4 -11   43.11    1.12
  -4   4  11   46.74    1.42
   4  -4 -11   47.30    1.45
   4  -4 -11   43.12    1.29
  -4   4  11   53.81    1.39
   4  -4 -10    8.03    0.72
   4  -4 -10    9.14    0.78
  -4   4  10    8.06    0.74
  -4   4  10    5.82    0.58
  -4   4  10    8.91    0.86
   4  -4 -10    9.00    0.62
   4  -4 -10    8.86    0.72
   4  -4  -9    2.69    0.56
  -4   4   9    2.32    0.71
   4  -4  -9    2.89    0.51
  -4   4   9    3.22    0.56
  -4   4   9    3.40    0.59
   4  -4  -9    2.94    0.58
   4  -4  -9    2.17    0.53
   4  -4  -8  516.77    5.63
  -4   4   8  500.28    8.75
   4  -4  -8  507.05    4.95
  -4   4   8  514.72    5.02
  -4   4   8  534.57    5.22
   4  -4  -8  511.25    5.68
   4  -4  -8  523.45    5.63
   4  -4  -7   56.94    1.71
   4  -4  -7   54.83    1.71
   4  -4  -7   55.87    1.67
   4  -4  -7   58.12    1.48
  -4   4   7   56.18    1.51
   4  -4  -7   57.39    1.72
   4  -4  -7   57.95    1.72
   4  -4  -6    4.01    0.56
  -4   4   6    2.60    0.79
   4  -4  -6    4.29    1.11
   4  -4  -6    3.64    0.92
   4  -4  -6    4.24    0.58
   4  -4  -6    4.75    0.61
  -4   4   6    4.93    1.05
   4  -4  -6    3.70    0.49
  -4   4   6    3.35    0.52
   4  -4  -6    4.24    0.55
   4  -4  -6    3.52    0.52
   4  -4  -5  179.15    2.31
   4  -4  -5  199.54    3.15
   4  -4  -5  170.68    5.94
   4  -4  -5  170.95    5.15
   4  -4  -5  196.48    3.17
   4  -4  -5  198.90    3.13
  -4   4   5  206.25    5.30
   4  -4  -5  187.76    2.68
  -4   4   5  195.92    2.71
  -4   4   5  161.03    4.26
   4  -4  -5  195.58    3.15
  -4   4   5  196.63    5.02
   4  -4  -5  198.11    3.16
   4  -4  -4    6.91    0.63
   4  -4  -4    5.43    1.22
   4  -4  -4    5.02    0.93
  -4   4   4    7.36    1.23
   4  -4  -4    5.99    0.54
  -4   4   4    5.93    0.89
   4  -4  -4    6.64    0.61
   4  -4  -4    7.31    0.64
  -4   4   4    6.43    1.02
   4  -4  -3   57.72    3.28
   4  -4  -3   57.57    2.71
  -4   4   3   63.91    2.85
  -4   4   3   60.49    2.56
   4  -4  -2    1.02    0.73
  -4   4   2   -0.02    0.67
  -4   4   2    0.70    0.45
  -4   4   2    0.89    0.51
  -4   4   1  155.24    4.21
  -4   4   1  155.63    4.17
   4  -4   0   16.63    1.66
  -4   4   0   18.29    1.44
  -4   4   0   17.57    1.43
   4  -4   1    3.45    0.83
  -4   4  -1    2.20    0.61
  -4   4  -1    3.41    0.71
   4  -4   2    3.56    0.41
   4  -4   2    5.09    0.51
   4  -4   2    3.97    0.44
  -4   4  -2    2.87    0.69
  -4   4  -2    4.29    0.79
   4  -4   2    4.09    0.42
   4  -4   3    9.34    0.60
   4  -4   3   10.17    0.65
   4  -4   3   11.02    0.67
  -4   4  -3    9.66    1.09
   4  -4   3    9.31    0.68
   4  -4   3   10.88    0.67
   4  -4   3   10.29    0.64
   4  -4   3   10.38    0.70
   4  -4   3   11.12    0.65
   4  -4   4  133.12    2.24
   4  -4   4  137.74    2.58
   4  -4   4  133.24    2.27
   4  -4   4  155.78    2.26
  -4   4  -4  139.89    4.15
  -4   4  -4  141.41    4.55
  -4   4  -4  125.34    3.82
   4  -4   4  146.13    2.40
   4  -4   4  147.73    2.38
   4  -4   4  137.60    2.53
   4  -4   4  128.68    2.39
   4  -4   4  143.25    2.55
   4  -4   4  139.99    2.39
   4  -4   5   46.67    1.31
   4  -4   5   49.32    1.59
   4  -4   5   49.44    1.40
   4  -4   5   46.25    1.52
   4  -4   5   47.56    1.50
   4  -4   5   47.80    1.42
   4  -4   6  255.63    3.16
  -4   4  -6  254.86    6.29
   4  -4   6  269.22    3.32
   4  -4   6  259.21    3.30
   4  -4   6  268.68    3.67
   4  -4   6  263.22    3.45
  -4   4  -7   24.84    2.02
   4  -4   7   21.59    1.07
   4  -4   7   22.99    0.98
   4  -4   7   23.65    1.10
   4  -4   7   21.03    1.00
   4  -4   8    8.15    0.71
   4  -4   8    7.54    0.63
   4  -4   8    8.98    0.74
   4  -4   9   28.60    1.09
   4  -4   9   29.19    1.14
   4  -4   9   29.33    1.06
   4  -4  10   21.89    0.89
   4  -4  10   21.12    0.90
   4  -4  10   20.47    0.80
   4  -4  11   76.64    1.41
   4  -4  11   82.83    1.50
   4  -4  12    0.34    0.27
   4  -4  12    0.24    0.23
   4  -3 -14  113.86    1.57
  -4   3  14  113.34    1.50
   4  -3 -13   47.83    1.04
  -4   3  13   46.69    1.04
   4  -3 -13   53.28    1.28
   4  -3 -13   47.34    1.16
   4  -3 -13   49.92    1.17
  -4   3  13   51.89    1.20
  -4   3  13   47.85    0.98
   4  -3 -12  188.59    2.57
  -4   3  12  191.37    2.51
   4  -3 -12  208.76    2.95
  -4   3  12  205.60    2.81
  -4   3  12  185.87    2.39
   4  -3 -12  191.22    2.10
   4  -3 -12  197.83    2.76
  -4   3  12  191.36    2.40
   4  -3 -11    2.24    0.44
  -4   3  11    2.20    0.53
  -4   3  11    1.95    0.39
   4  -3 -11    2.14    0.41
   4  -3 -11    2.12    0.51
  -4   3  11    2.74    0.49
   4  -3 -11    2.39    0.40
   4  -3 -10   13.11    0.84
   4  -3 -10   14.21    0.72
  -4   3  10   13.67    0.88
  -4   3  10   12.61    0.74
   4  -3 -10   14.65    0.91
   4  -3 -10   13.86    0.82
   4  -3  -9   26.49    1.16
   4  -3  -9   26.41    1.02
  -4   3   9   26.96    1.08
  -4   3   9   26.44    1.20
   4  -3  -9   28.23    1.23
   4  -3  -9   27.52    1.16
   4  -3  -8   10.76    0.80
   4  -3  -8   10.38    0.68
  -4   3   8   11.95    0.74
  -4   3   8    9.95    0.79
  -4   3   8   13.13    0.88
   4  -3  -8   10.65    0.81
   4  -3  -8   10.66    0.77
   4  -3  -7  145.00    2.69
   4  -3  -7  128.77    5.11
   4  -3  -7  128.87    4.67
  -4   3   7  151.33    4.62
  -4   3   7  147.26    4.53
   4  -3  -7  146.15    2.33
  -4   3   7  147.11    2.42
   4  -3  -7  147.08    2.74
   4  -3  -7  143.41    2.63
   4  -3  -6   12.59    0.80
   4  -3  -6   10.45    1.56
   4  -3  -6   10.56    1.35
   4  -3  -6   12.20    0.78
  -4   3   6   14.64    1.56
   4  -3  -6   11.92    0.70
  -4   3   6   12.43    1.36
   4  -3  -6   11.99    0.79
   4  -3  -6   11.73    0.78
  -4   3   5    4.65    0.88
   4  -3  -5    3.30    1.00
   4  -3  -5    3.76    0.84
  -4   3   5    3.80    0.96
  -4   3   5    4.52    0.48
  -4   3   5    3.54    0.67
   4  -3  -4  113.14    4.49
   4  -3  -4  115.47    3.83
  -4   3   4  128.98    4.00
  -4   3   4  124.02    1.98
  -4   3   4  114.76    3.38
  -4   3   4  125.30    3.65
   4  -3  -3  317.82    7.25
   4  -3  -3  314.83    6.08
  -4   3   3  314.99    5.73
  -4   3   3  321.82    5.71
   4  -3  -2    1.58    0.71
  -4   3   2    2.44    0.79
  -4   3   2    1.70    0.58
   4  -3  -1   54.15    2.86
  -4   3   1   56.93    2.40
  -4   3   1   56.72    2.36
   4  -3   0  121.23    4.14
  -4   3   0  128.16    3.52
  -4   3   0  128.38    3.60
   4  -3   1   73.53    3.15
  -4   3  -1   74.17    2.55
  -4   3  -1   76.64    2.80
   4  -3   2   73.20    3.13
  -4   3  -2   84.23    3.04
  -4   3  -2   76.76    2.67
  -4   3  -2   85.44    2.95
  -4   3  -3  140.58    3.88
  -4   3  -3  138.88    4.39
  -4   3  -3  133.71    3.75
   4  -3   4   30.39    1.05
  -4   3  -4    2.68    0.76
   4  -3   4    3.93    0.51
  -4   3  -4    4.65    0.76
   4  -3   4    3.16    0.41
   4  -3   4    4.12    0.45
   4  -3   4   23.58    1.31
   4  -3   5  577.48    5.84
   4  -3   5  528.53    4.76
  -4   3  -5  572.53    9.53
  -4   3  -5  556.81    8.63
  -4   3  -5  584.98    9.69
   4  -3   5  565.88    5.36
   4  -3   5  518.59    5.54
   4  -3   5  565.15    5.06
   4  -3   5  554.24    5.33
  -4   3  -6    0.71    0.76
   4  -3   6   -0.52    0.97
  -4   3  -6    0.65    0.54
  -4   3  -6    0.76    0.60
   4  -3   6    0.67    0.36
   4  -3   6    0.53    0.39
   4  -3   6    1.15    0.37
   4  -3   6    0.22    0.36
  -4   3  -7  684.26   10.99
   4  -3   7  685.64    6.76
   4  -3   7  661.13    5.97
   4  -3   7  672.01    6.37
   4  -3   7  660.20    6.10
  -4   3  -8   14.08    1.53
   4  -3   8   10.65    0.77
  -4   3  -8   11.07    1.45
   4  -3   8   11.26    0.84
   4  -3   8   10.60    0.73
   4  -3   8   11.33    0.81
   4  -3   8   10.58    0.76
   4  -3   9    4.87    0.54
   4  -3   9    4.04    0.59
   4  -3   9    4.47    0.55
   4  -3   9    4.28    0.55
   4  -3  10   -0.17    0.41
  -4   3 -10    0.26    0.25
   4  -3  10   -0.08    0.36
   4  -3  10   -0.24    0.48
   4  -3  10    0.54    0.37
   4  -3  11    5.06    0.54
   4  -3  11    3.70    0.45
   4  -3  11    4.40    0.53
   4  -3  11    3.80    0.40
   4  -3  12   23.17    0.82
   4  -3  12   25.49    0.83
   4  -2 -14   65.78    1.14
  -4   2  14   68.48    1.19
   4  -2 -14   64.71    1.22
  -4   2  13  157.94    2.08
   4  -2 -13  166.13    2.31
  -4   2  13  167.03    2.29
   4  -2 -13  156.34    2.08
  -4   2  13  160.85    2.12
   4  -2 -12  134.53    2.05
  -4   2  12  139.82    2.18
   4  -2 -12  147.38    2.43
  -4   2  12  153.32    2.40
  -4   2  12  134.18    2.02
   4  -2 -12  138.99    2.23
  -4   2  12  142.45    2.07
  -4   2  12  146.40    2.22
   4  -2 -11    2.27    0.46
   4  -2 -11    2.93    0.43
  -4   2  11    2.80    0.44
   4  -2 -11    2.56    0.38
  -4   2  11    2.54    0.52
  -4   2  11    2.47    0.44
  -4   2  11    1.78    0.37
  -4   2  11    1.84    0.37
   4  -2 -11    2.64    0.47
  -4   2  11    2.35    0.45
  -4   2  11    2.57    0.42
   4  -2 -10   18.28    0.90
  -4   2  10   16.90    0.83
  -4   2  10   16.99    0.97
   4  -2 -10   18.25    0.80
   4  -2 -10   18.74    0.96
   4  -2 -10   18.01    0.85
  -4   2  10   18.03    0.94
  -4   2  10   17.20    0.87
   4  -2 -10   18.28    0.95
  -4   2   9   75.93    1.93
   4  -2  -9   76.14    1.86
  -4   2   9   69.35    1.57
  -4   2   9   76.60    1.83
  -4   2   9   71.88    1.69
   4  -2  -9   81.01    1.98
   4  -2  -9   75.42    1.78
  -4   2   9   89.36    2.00
   4  -2  -9   82.81    1.65
   4  -2  -9   74.24    1.91
   4  -2  -8   33.32    0.97
   4  -2  -8   40.63    1.38
   4  -2  -8   38.61    2.62
  -4   2   8   32.62    2.12
   4  -2  -8   43.73    1.21
  -4   2   8   43.29    1.29
  -4   2   8   42.66    1.44
  -4   2   8   48.24    1.44
   4  -2  -8   43.62    1.47
   4  -2  -8   41.24    1.35
   4  -2  -8   42.82    1.43
   4  -2  -7    2.11    0.40
  -4   2   7    2.75    0.88
   4  -2  -7    1.71    0.39
   4  -2  -7    0.65    0.57
   4  -2  -7    2.61    0.86
  -4   2   7    1.69    0.69
   4  -2  -7    2.01    0.39
  -4   2   7    3.00    0.57
  -4   2   7    2.46    0.46
   4  -2  -7    2.27    0.42
  -4   2   6    2.66    0.80
   4  -2  -6    1.53    0.78
   4  -2  -6    1.85    0.71
  -4   2   6    1.44    0.77
  -4   2   6    2.16    0.45
  -4   2   5    0.80    0.58
   4  -2  -5    0.32    0.62
   4  -2  -5    0.78    0.54
  -4   2   5    0.53    0.66
  -4   2   5    1.26    0.52
  -4   2   5    0.31    0.34
  -4   2   4    4.93    0.77
  -4   2   4    4.04    0.80
   4  -2  -4    3.56    0.91
   4  -2  -4    4.95    0.87
  -4   2   4    3.44    0.95
  -4   2   4    4.30    0.44
   4  -2  -3   41.23    2.47
   4  -2  -3   37.61    1.93
  -4   2   3   40.00    2.13
  -4   2   3   39.73    1.89
  -4   2   3   36.44    0.97
  -4   2   3   40.34    1.90
   4  -2  -2   18.61    1.66
   4  -2  -2   16.27    1.19
  -4   2   2   16.81    1.37
  -4   2   2   16.23    1.14
  -4   2   2   17.15    1.27
   4  -2  -1   68.84    3.02
  -4   2   1   73.74    2.59
  -4   2   1   68.43    2.15
  -4   2   1   73.95    2.58
   4  -2   0   59.56    2.75
  -4   2   0   60.91    2.41
  -4   2   0   64.92    2.37
  -4   2   0   64.81    2.42
   4  -2   1  173.98    4.62
  -4   2  -1  171.28    3.96
  -4   2  -1  176.67    3.78
  -4   2  -1  182.34    4.12
   4  -2   2    0.86    0.69
   4  -2   2    1.79    0.61
  -4   2  -2    1.01    0.58
  -4   2  -2    1.59    0.54
  -4   2  -2    1.82    0.55
   4  -2   3  313.50    7.68
   4  -2   3  321.31    6.23
  -4   2  -3  336.29    6.05
  -4   2  -3  311.75    5.55
  -4   2  -3  349.69    5.95
   4  -2   4   58.76    3.42
  -4   2  -4   59.94    2.46
  -4   2  -4   59.60    2.93
  -4   2  -4   53.84    2.21
   4  -2   5  485.89   10.12
  -4   2  -5  509.47    9.06
  -4   2  -5  488.16    8.30
  -4   2  -5  490.81    7.99
  -4   2  -5  490.27    8.69
   4  -2   6    8.66    0.70
  -4   2  -6    8.10    1.26
  -4   2  -6    7.81    1.14
  -4   2  -6    8.17    1.13
  -4   2  -6    8.89    1.27
   4  -2   6    8.48    0.61
   4  -2   6    8.67    0.62
  -4   2  -7  243.44    6.47
  -4   2  -7  246.84    5.96
   4  -2   7  251.76    3.68
  -4   2  -7  236.66    5.58
  -4   2  -7  247.04    6.34
   4  -2   7  244.55    3.14
   4  -2   7  246.24    3.25
  -4   2  -8  352.61    8.08
   4  -2   8  351.66    4.48
   4  -2   8  339.69    3.96
   4  -2   8  346.43    4.12
   4  -2   8  333.61    3.97
   4  -2   9    8.24    0.75
   4  -2   9    8.33    0.71
  -4   2  -9    7.28    1.24
  -4   2  -9    8.90    1.37
   4  -2   9    7.37    0.65
   4  -2   9    7.84    0.66
   4  -2  10   31.92    1.25
  -4   2 -10   31.01    2.26
   4  -2  10   33.80    1.28
   4  -2  10   29.36    1.06
   4  -2  11  143.81    2.49
  -4   2 -11  135.55    2.21
   4  -2  11  136.98    2.40
  -4   2 -11  137.02    2.14
   4  -2  11  145.51    2.51
   4  -2  12   73.63    1.58
   4  -2  12   71.59    1.53
   4  -2  12   76.20    1.58
   4  -2  13   20.45    0.76
   4  -2  13   20.26    0.72
  -4   2 -13   20.10    0.55
   4  -2  13   21.55    0.72
  -4   1  14   10.34    0.42
   4  -1 -14   10.97    0.43
  -4   1  14   12.08    0.54
   4  -1 -14   12.01    0.59
  -4   1  14   12.45    0.53
  -4   1  13   37.12    0.98
   4  -1 -13   38.22    1.01
  -4   1  13   40.74    1.10
  -4   1  13   40.70    1.08
  -4   1  12  143.73    2.23
   4  -1 -12  146.68    2.35
   4  -1 -12  144.98    2.28
  -4   1  12  155.97    2.45
  -4   1  12  147.61    2.08
   4  -1 -12  139.23    2.11
  -4   1  12  152.16    2.35
   4  -1 -12  148.47    2.47
  -4   1  11    4.40    0.50
   4  -1 -11    4.45    0.52
  -4   1  11    3.86    0.56
  -4   1  11    3.42    0.45
  -4   1  11    3.07    0.44
   4  -1 -11    3.75    0.46
  -4   1  11    3.85    0.49
  -4   1  11    3.75    0.50
   4  -1 -11    3.86    0.55
  -4   1  10   26.56    1.15
  -4   1  10   27.19    1.06
   4  -1 -10   27.56    1.11
   4  -1 -10   27.10    0.91
  -4   1  10   26.43    1.08
  -4   1  10   26.17    0.97
   4  -1 -10   27.34    1.08
  -4   1  10   26.67    1.05
  -4   1  10   28.58    1.14
   4  -1 -10   26.71    1.17
   4  -1  -9    1.82    0.47
   4  -1  -9    1.80    0.38
   4  -1  -9    1.67    0.42
   4  -1  -9    1.93    0.39
  -4   1   9    1.54    0.46
  -4   1   9    0.99    0.39
   4  -1  -9    2.42    0.47
  -4   1   9    1.10    0.47
  -4   1   9    1.44    0.42
   4  -1  -8  645.18    5.95
   4  -1  -8  664.10   10.84
  -4   1   8  622.30    5.55
   4  -1  -8  665.96    6.23
   4  -1  -8  715.56    5.61
  -4   1   8  694.94    6.28
  -4   1   8  682.51    5.83
   4  -1  -8  663.12    6.20
   4  -1  -8  605.68    5.05
  -4   1   8  705.53    6.06
  -4   1   8  652.18    5.96
   4  -1  -8  678.24    6.41
   4  -1  -7  155.10    2.10
   4  -1  -7  170.52    2.69
   4  -1  -7  156.29    5.05
   4  -1  -7  162.94    5.04
  -4   1   7  175.85    4.50
   4  -1  -7  173.94    2.82
   4  -1  -7  187.39    2.48
  -4   1   7  176.29    2.84
  -4   1   7  183.38    2.67
  -4   1   7  178.38    2.64
   4  -1  -7  170.95    2.78
   4  -1  -7  166.00    2.62
   4  -1  -7  174.83    2.89
  -4   1   6  141.96    3.98
  -4   1   6  145.19    2.29
  -4   1   5    1.23    0.66
   4  -1  -5    0.03    0.55
  -4   1   5    1.37    0.66
  -4   1   5    0.61    0.35
   4  -1  -4   79.25    3.29
   4  -1  -4   75.20    2.83
  -4   1   4   81.11    2.95
  -4   1   4   81.39    2.78
  -4   1   4   76.49    1.47
   4  -1  -3 1450.35   15.36
   4  -1  -3 1409.89   13.40
  -4   1   3 1423.29   13.81
  -4   1   3 1497.82   14.09
  -4   1   3 1408.64   12.94
  -4   1   3 1353.01    9.22
  -4   1   3 1403.37   13.12
   4  -1  -2 1592.47   16.18
   4  -1  -2 1577.71   13.73
  -4   1   2 1608.88   14.75
  -4   1   2 1642.24   14.72
  -4   1   2 1541.83   13.38
  -4   1   2 1676.83   14.36
   4  -1  -1 2308.46   20.48
  -4   1   1 2337.87   18.82
  -4   1   1 2405.96   18.63
  -4   1   1 2190.57   16.94
  -4   1   1 2485.08   18.82
   4  -1   0    0.61    0.82
   4  -1   0    4.69    0.86
  -4   1   0    1.11    0.64
  -4   1   0    3.71    0.74
   4  -1   1  694.07   11.31
   4  -1   1  707.61    9.65
  -4   1  -1  750.17    9.23
  -4   1  -1  723.40    8.52
  -4   1  -1  762.54    8.80
   4  -1   2   20.41    1.92
   4  -1   2   20.03    1.51
  -4   1  -2   20.17    1.47
  -4   1  -2   20.21    1.32
  -4   1  -2   19.36    1.36
  -4   1  -2   20.65    1.40
   4  -1   3   24.06    2.07
   4  -1   3   21.71    1.58
  -4   1  -3   24.67    1.61
  -4   1  -3   23.16    1.37
  -4   1  -3   24.75    1.50
  -4   1  -4  226.66    5.03
   4  -1   4  220.50    6.31
   4  -1   4  219.00    4.99
  -4   1  -4  227.54    4.84
  -4   1  -4  217.98    4.94
  -4   1  -4  215.52    4.32
  -4   1  -5  192.29    4.76
   4  -1   5  187.24    6.08
  -4   1  -5  182.66    4.38
  -4   1  -5  192.45    5.36
   4  -1   6   31.89    2.66
  -4   1  -6   30.54    2.23
  -4   1  -6   30.37    2.10
  -4   1  -6   31.69    2.02
  -4   1  -6   31.03    2.17
   4  -1   7  176.68    6.32
  -4   1  -7  181.76    5.63
  -4   1  -7  188.47    5.27
   4  -1   7  181.70    3.33
  -4   1  -7  182.19    4.91
  -4   1  -7  186.06    5.41
  -4   1  -7  182.52    2.68
   4  -1   7  185.99    3.07
   4  -1   7  178.22    2.56
   4  -1   7  181.21    2.63
   4  -1   8  228.45    3.87
  -4   1  -8  238.48    6.09
   4  -1   8  235.59    3.65
  -4   1  -8  235.82    3.09
   4  -1   8  226.83    3.96
  -4   1  -8  244.97    6.34
   4  -1   8  235.05    3.58
   4  -1   8  224.88    3.03
   4  -1   8  228.98    3.09
   4  -1   9   86.86    2.36
  -4   1  -9   96.57    4.30
   4  -1   9   95.31    2.19
   4  -1   9   86.75    2.20
  -4   1  -9   91.13    1.83
  -4   1  -9   90.12    1.82
   4  -1   9   84.54    1.84
   4  -1   9   90.24    1.89
   4  -1  10    9.66    0.77
  -4   1 -10   10.15    1.46
   4  -1  10    8.77    0.77
  -4   1 -10    6.93    1.21
   4  -1  10    9.18    0.68
   4  -1  10    9.62    0.64
  -4   1 -11   90.11    3.78
  -4   1 -11   89.70    1.89
   4  -1  11   90.01    2.05
   4  -1  12   99.42    1.97
  -4   1 -12   94.44    1.79
   4  -1  12   97.84    1.97
  -4   1 -12   95.51    1.74
   4  -1  13   44.48    1.15
   4  -1  13   45.17    1.17
  -4   1 -13   43.11    0.99
   4  -1  13   45.46    1.14
  -4   1 -14    0.35    0.24
   4  -1  14    0.25    0.31
   4  -1  14    0.59    0.31
   4  -1  14    0.60    0.29
  -4   0  14   15.93    0.58
   4   0 -14   15.14    0.64
  -4   0  14   16.35    0.61
  -4   0  13   86.83    1.50
   4   0 -13   87.73    1.57
  -4   0  13   93.99    1.64
  -4   0  13   96.81    1.66
  -4   0  12   15.66    0.75
   4   0 -12   17.20    0.75
   4   0 -12   16.34    0.74
   4   0 -12   17.73    0.83
  -4   0  12   17.40    0.86
  -4   0  12   18.51    0.88
   4   0 -12   17.57    0.88
  -4   0  11   79.46    1.74
   4   0 -11   78.38    1.74
   4   0 -11   77.92    1.77
   4   0 -11   82.37    1.89
  -4   0  11   83.05    1.91
  -4   0  11   82.72    1.70
  -4   0  11   82.82    1.88
   4   0 -11   80.84    1.92
  -4   0  10  256.66    3.41
   4   0 -10  254.50    3.59
   4   0 -10  261.09    3.67
  -4   0  10  264.16    3.65
  -4   0  10  258.45    3.40
  -4   0  10  263.70    3.36
  -4   0  10  260.74    3.58
   4   0 -10  259.72    3.70
   4   0  -9  128.53    2.53
   4   0  -9  129.74    2.53
   4   0  -9  136.15    2.02
  -4   0   9  134.21    2.50
  -4   0   9  135.51    2.42
  -4   0   9  133.04    2.22
  -4   0   9  131.32    2.32
  -4   0   9  128.91    2.45
   4   0  -9  129.28    2.55
   4   0  -8   22.27    1.07
   4   0  -8   24.10    1.09
  -4   0   8   23.93    1.08
   4   0  -8   26.06    0.90
  -4   0   8   20.27    0.78
  -4   0   8   24.36    0.98
   4   0  -8   23.91    1.01
  -4   0   8   21.36    1.00
  -4   0   8   24.43    1.04
   4   0  -8   24.16    1.10
   4   0  -7   14.80    0.65
   4   0  -7   17.17    0.92
  -4   0   7   20.98    0.87
  -4   0   7   18.67    1.57
   4   0  -7   17.76    0.93
   4   0  -7   20.71    0.79
  -4   0   7   22.82    0.78
  -4   0   7   20.92    0.91
   4   0  -7   17.12    0.84
   4   0  -7   16.50    0.71
  -4   0   7   20.91    0.94
  -4   0   7   17.25    0.85
  -4   0   7   17.47    0.89
   4   0  -7   17.29    0.93
   4   0  -6    7.84    1.13
  -4   0   6    9.63    0.64
  -4   0   6    9.26    1.14
  -4   0   6    8.06    0.61
   4   0  -5  166.13    4.70
  -4   0   5  178.03    2.51
  -4   0   5  172.45    4.27
  -4   0   5  169.74    2.48
  -4   0   5  171.36    2.40
  -4   0   5  169.39    3.84
   4   0  -4  119.84    3.88
  -4   0   4  124.18    3.52
  -4   0   4  111.51    1.82
  -4   0   4  107.48    3.09
  -4   0   4  122.92    1.96
   4   0  -3 1319.51   14.12
  -4   0   3 1345.26   13.08
  -4   0   3 1316.18   12.47
  -4   0   3 1323.79    9.01
   4   0  -2 1447.18   14.95
  -4   0   2 1489.52   13.87
  -4   0   2 1489.34   13.42
  -4   0   2 1473.01    9.81
   4   0  -1 3048.30   24.38
  -4   0   1 3136.36   23.03
  -4   0   1 3070.77   22.64
  -4   0   1 3084.76   18.33
   4   0   0   32.33    2.35
   4   0   0   33.80    1.93
  -4   0   0   34.05    1.86
  -4   0   0   36.78    0.98
  -4   0   0   38.46    1.83
  -4   0   0   34.11    1.72
  -4   0   0   33.75    0.85
  -4   0  -1  499.66    7.24
  -4   0  -1  498.71    4.26
  -4   0  -1  491.17    6.69
  -4   0  -1  506.46    6.80
   4   0   2    4.16    1.05
   4   0   2    5.56    0.87
  -4   0  -2    5.65    0.92
  -4   0  -2    6.31    0.42
  -4   0  -2    5.45    0.80
  -4   0  -2    7.12    0.90
   4   0   3  575.29   10.05
   4   0   3  555.00    8.17
  -4   0  -3  616.48    8.19
  -4   0  -3  634.08    8.57
  -4   0  -3  589.42    7.50
   4   0   4  927.84   13.31
  -4   0  -4  935.07   10.74
  -4   0  -4  919.61   10.99
  -4   0  -4  912.59    9.78
  -4   0  -4  938.36   10.90
   4   0   5   55.70    3.18
   4   0   5   55.85    2.45
  -4   0  -5   58.57    2.51
  -4   0  -5   56.21    2.54
   4   0   6  126.52    5.02
  -4   0  -6  121.18    3.65
  -4   0  -6  132.59    4.53
  -4   0  -6  131.07    4.28
  -4   0  -6  130.24    4.00
  -4   0  -6  133.66    4.30
   4   0   7    4.42    1.09
  -4   0  -7    5.70    1.07
   4   0   7    5.46    0.65
   4   0   7    5.38    0.61
  -4   0  -7    5.46    1.01
  -4   0  -7    5.59    1.05
   4   0   7    6.32    0.69
   4   0   8   14.22    0.98
   4   0   8   14.24    1.91
   4   0   8   14.71    1.04
  -4   0  -8   14.28    1.65
  -4   0  -8   13.17    1.53
   4   0   8   13.98    0.87
   4   0   8   14.79    0.93
  -4   0  -8   14.45    0.77
   4   0   8   14.66    1.00
  -4   0  -8   14.13    1.59
   4   0   8   13.39    0.71
   4   0   8   13.00    0.69
   4   0   9   24.81    1.13
   4   0   9   24.41    1.26
   4   0   9   23.73    1.17
  -4   0  -9   25.10    1.01
   4   0   9   25.77    1.32
   4   0   9   24.89    0.98
   4   0  10    5.03    0.71
   4   0  10    4.60    0.59
   4   0  10    4.91    0.65
  -4   0 -10    5.00    0.51
  -4   0 -10    3.64    0.95
  -4   0 -10    4.66    1.15
   4   0  10    4.59    0.52
  -4   0 -10    5.59    0.54
   4   0  11  413.73    5.44
   4   0  11  410.33    4.57
   4   0  11  418.17    5.07
  -4   0 -11  413.43    4.33
  -4   0 -11  413.52    4.32
   4   0  12   10.88    0.74
  -4   0 -12   10.39    0.59
  -4   0 -12   10.21    0.67
   4   0  12    9.78    0.76
  -4   0 -12   10.44    0.66
   4   0  13    4.66    0.50
  -4   0 -13    4.34    0.39
   4   0  13    4.88    0.54
  -4   0 -13    4.04    0.41
   4   0  14    2.56    0.36
  -4   0 -14    3.05    0.34
   4   0  14    3.56    0.44
   4   0  14    2.68    0.38
  -4  -1  14   15.23    0.53
   4   1 -14   14.82    0.56
  -4  -1  13   16.54    0.62
   4   1 -13   16.55    0.63
   4   1 -13   17.13    0.70
  -4  -1  13   18.75    0.72
  -4  -1  13   17.93    0.73
  -4  -1  12  111.88    1.90
   4   1 -12  115.08    1.99
   4   1 -12  118.66    2.09
  -4  -1  12  124.27    2.09
  -4  -1  12  122.52    2.11
  -4  -1  11   19.82    0.88
   4   1 -11   21.31    0.96
   4   1 -11   19.45    0.97
  -4  -1  11   22.00    1.02
  -4  -1  11   21.23    0.84
  -4  -1  11   22.04    1.00
   4   1 -11   20.00    0.97
  -4  -1  10   11.25    0.72
   4   1 -10   10.83    0.79
   4   1 -10   12.71    0.84
  -4  -1  10   13.33    0.87
  -4  -1  10   11.50    0.74
   4   1 -10   12.20    0.71
  -4  -1  10   13.04    0.86
   4   1 -10   11.43    0.82
   4   1  -9  347.99    4.44
   4   1  -9  339.57    4.37
  -4  -1   9  341.67    4.26
   4   1  -9  331.39    4.07
  -4  -1   9  358.31    4.15
   4   1  -9  330.02    4.06
   4   1  -9  339.32    3.41
  -4  -1   9  344.18    4.06
  -4  -1   9  345.87    4.28
   4   1  -9  337.45    4.34
   4   1  -8  150.64    2.57
   4   1  -8  155.62    2.85
   4   1  -8  155.44    2.84
  -4  -1   8  156.46    2.72
   4   1  -8  157.83    2.67
  -4  -1   8  165.49    2.73
   4   1  -8  159.96    2.65
  -4  -1   8  160.22    2.45
   4   1  -8  158.93    2.22
  -4  -1   8  155.81    2.59
  -4  -1   8  156.24    2.74
   4   1  -8  157.98    2.80
   4   1  -7  207.18    2.52
   4   1  -7  210.27    3.07
   4   1  -7  226.12    3.41
  -4  -1   7  215.99    2.77
   4   1  -7  215.80    3.31
  -4  -1   7  219.40    3.15
  -4  -1   7  231.29    3.20
   4   1  -7  222.77    3.14
   4   1  -7  218.85    3.17
  -4  -1   7  228.02    2.97
   4   1  -7  224.67    2.67
   4   1  -7  220.78    2.62
  -4  -1   7  217.23    3.00
  -4  -1   7  212.27    3.15
   4   1  -7  210.57    3.25
  -4  -1   6   18.13    0.78
   4   1  -6   17.16    0.84
  -4  -1   6   16.86    0.81
   4   1  -5  428.83    7.50
  -4  -1   5  439.65    4.26
  -4  -1   5  437.90    4.30
   4   1  -4  333.68    6.44
  -4  -1   4  330.85    3.56
  -4  -1   4  335.74    3.61
  -4  -1   4  343.06    6.03
   4   1  -3    9.18    1.08
  -4  -1   3    7.31    0.52
  -4  -1   3    5.03    0.78
  -4  -1   3    9.13    0.57
  -4  -1   3    7.06    1.01
  -4  -1   3   10.69    1.23
   4   1  -2  248.08    5.26
  -4  -1   2  240.61    4.79
  -4  -1   2  249.82    2.89
  -4  -1   2  247.69    4.90
  -4  -1   2  253.70    4.67
  -4  -1   2  252.77    2.78
   4   1  -1  440.42    7.07
  -4  -1   1  423.45    6.56
  -4  -1   1  428.36    4.01
  -4  -1   1  445.12    6.57
  -4  -1   1  438.69    6.27
  -4  -1   1  440.42    3.85
   4   1   0   86.81    3.66
   4   1   0   91.33    3.07
  -4  -1   0   88.99    2.88
  -4  -1   0   87.58    1.52
  -4  -1   0   90.80    2.81
  -4  -1   0   87.80    2.70
  -4  -1   0   85.37    1.38
   4   1   1   20.75    1.84
   4   1   1   20.50    1.50
  -4  -1  -1   24.04    1.56
  -4  -1  -1   19.79    0.71
  -4  -1  -1   20.02    1.35
   4   1   2  126.78    4.38
   4   1   2  133.59    3.77
  -4  -1  -2  138.58    3.63
  -4  -1  -2  126.88    1.78
  -4  -1  -2  139.50    3.83
  -4  -1  -2  128.30    3.33
   4   1   3  107.31    4.07
  -4  -1  -3  110.52    3.33
  -4  -1  -3  102.18    1.56
  -4  -1  -3  114.21    3.51
  -4  -1  -3  105.88    3.17
   4   1   4   83.80    3.71
  -4  -1  -4   91.60    3.17
  -4  -1  -4   86.33    3.00
   4   1   5   23.99    2.15
  -4  -1  -5   26.18    1.76
  -4  -1  -5   27.67    1.83
   4   1   6    3.04    0.92
  -4  -1  -6    3.07    0.75
  -4  -1  -6    4.22    0.91
  -4  -1  -6    2.40    0.76
  -4  -1  -6    4.20    0.90
  -4  -1  -6    3.47    0.38
  -4  -1  -6    3.11    0.87
   4   1   7   14.96    0.82
   4   1   7   13.02    1.76
  -4  -1  -7   14.89    1.34
  -4  -1  -7   15.59    1.66
  -4  -1  -7   17.87    1.71
  -4  -1  -7   14.42    1.47
   4   1   7   15.44    1.00
   4   1   7   15.56    0.99
   4   1   8   70.25    2.13
   4   1   8   68.67    2.01
   4   1   8   66.86    3.94
  -4  -1  -8   62.19    3.28
  -4  -1  -8   71.95    3.40
   4   1   8   70.94    1.89
   4   1   8   70.66    2.06
  -4  -1  -8   74.80    3.33
   4   1   8   66.70    2.12
  -4  -1  -8   69.74    1.71
   4   1   8   64.87    1.42
   4   1   9  445.80    5.63
   4   1   9  437.04    5.80
   4   1   9  426.27    4.93
  -4  -1  -9  442.54    4.80
   4   1   9  447.51    5.69
   4   1   9  457.33    5.38
   4   1   9  422.11    4.30
  -4  -1 -10  213.42    3.13
   4   1  10  215.84    3.82
  -4  -1 -10  217.09    6.41
   4   1  10  206.62    3.16
  -4  -1 -10  220.10    3.13
   4   1  10  213.40    3.83
  -4  -1 -10  209.91    5.90
   4   1  10  211.35    3.50
   4   1  11  460.98    5.72
   4   1  11  437.31    4.75
  -4  -1 -11  457.27    9.00
   4   1  11  449.29    5.34
  -4  -1 -11  450.48    4.76
  -4  -1 -11  448.92    4.72
   4   1  12    0.78    0.41
  -4  -1 -12    1.59    0.35
   4   1  12    2.02    0.56
  -4  -1 -12    0.83    0.36
   4   1  12    1.43    0.51
  -4  -1 -12    1.75    0.36
  -4  -1 -12    1.26    0.42
   4   1  12    1.15    0.33
   4   1  13   81.28    1.62
  -4  -1 -13   81.76    1.52
  -4  -1 -13   81.93    1.63
   4   1  13   82.73    1.88
  -4  -1 -13   82.01    1.61
  -4  -1 -14    1.87    0.25
   4   1  14    1.29    0.30
  -4  -1 -14    1.70    0.28
  -4  -1 -14    1.63    0.28
   4   1  14    1.64    0.39
  -4  -1 -15   35.68    0.73
  -4  -1 -15   35.76    0.70
   4   1  15   35.83    0.77
  -4  -2  13    0.97    0.25
   4   2 -13    1.14    0.28
  -4  -2  13    1.20    0.35
   4   2 -13    1.28    0.29
   4   2 -12  103.98    1.84
   4   2 -12  102.00    1.85
  -4  -2  12  108.53    1.88
  -4  -2  12  106.95    1.88
  -4  -2  11   28.81    1.02
   4   2 -11   31.22    1.14
   4   2 -11   30.66    1.14
  -4  -2  11   32.25    1.15
  -4  -2  11   30.37    0.95
   4   2 -11   30.23    1.00
  -4  -2  11   32.18    1.15
  -4  -2  10    6.08    0.56
   4   2 -10    5.78    0.62
   4   2 -10    7.19    0.59
   4   2 -10    5.19    0.62
  -4  -2  10    5.83    0.64
  -4  -2  10    6.76    0.58
   4   2 -10    6.18    0.58
   4   2 -10    6.40    0.58
  -4  -2  10    6.30    0.68
   4   2 -10    6.84    0.62
  -4  -2   9   48.63    1.43
   4   2  -9   52.50    1.64
   4   2  -9   51.75    1.50
   4   2  -9   52.51    1.62
  -4  -2   9   53.55    1.59
  -4  -2   9   53.77    1.50
   4   2  -9   53.31    1.55
   4   2  -9   52.16    1.53
  -4  -2   9   51.03    1.57
   4   2  -9   50.42    1.54
   4   2  -8   15.97    0.94
   4   2  -8   16.06    0.89
   4   2  -8   14.72    0.91
  -4  -2   8   15.78    0.90
  -4  -2   8   15.62    0.89
   4   2  -8   16.08    0.88
   4   2  -8   16.76    0.89
   4   2  -8   14.17    0.65
  -4  -2   8   15.93    0.92
   4   2  -8   15.51    0.89
   4   2  -7    9.23    0.74
   4   2  -7    9.64    0.71
   4   2  -7    9.60    0.74
  -4  -2   7   10.07    0.73
  -4  -2   7    9.49    0.70
   4   2  -7    9.24    0.69
   4   2  -7    9.68    0.74
   4   2  -7    9.16    0.55
  -4  -2   7    8.85    0.66
  -4  -2   7    9.26    0.72
   4   2  -7    8.82    0.69
   4   2  -6   51.92    1.59
  -4  -2   6   54.51    1.33
   4   2  -6   51.88    1.54
  -4  -2   6   49.30    1.41
  -4  -2   6   51.92    1.47
   4   2  -6   51.35    1.49
   4   2  -6   51.94    1.51
   4   2  -6   54.07    1.23
   4   2  -6   51.53    1.20
  -4  -2   6   50.12    1.40
  -4  -2   6   49.43    1.45
   4   2  -6   48.68    1.45
  -4  -2   5    2.54    0.40
   4   2  -5    2.85    0.45
  -4  -2   5    2.55    0.42
   4   2  -4   16.90    1.44
  -4  -2   4   39.31    1.13
   4   2  -3  306.63    5.93
  -4  -2   3  316.21    3.42
  -4  -2   3  310.77    5.94
  -4  -2   3  308.90    3.35
   4   2  -2   96.98    3.21
  -4  -2   2  101.09    2.97
  -4  -2   2   93.91    1.68
  -4  -2   2   97.18    3.25
  -4  -2   2   95.10    1.63
   4   2  -1    1.32    0.57
  -4  -2   1    0.88    0.50
  -4  -2   1    1.53    0.32
  -4  -2   1    2.28    0.64
  -4  -2   1    1.43    0.29
   4   2   0  924.37   10.82
  -4  -2   0  904.10   10.00
  -4  -2   0  875.08    6.64
  -4  -2   0  927.28   10.88
  -4  -2   0  880.86    9.68
   4   2   1   77.17    3.41
  -4  -2  -1   82.15    2.76
  -4  -2  -1   80.76    1.47
  -4  -2  -1   82.10    2.98
   4   2   2    3.61    0.92
  -4  -2  -2    3.85    0.76
  -4  -2  -2    4.36    0.38
  -4  -2  -2    3.84    0.77
  -4  -2  -2    3.83    0.68
   4   2   3  312.38    6.99
  -4  -2  -3  302.54    3.04
  -4  -2  -3  303.19    5.48
   4   2   4 1298.49   15.65
  -4  -2  -4 1291.22   13.96
  -4  -2  -4 1278.11   13.01
   4   2   5   84.21    3.80
  -4  -2  -5   89.06    3.28
  -4  -2  -5   85.49    3.36
  -4  -2  -5   83.77    3.07
  -4  -2  -5   83.27    1.69
   4   2   6    3.08    0.98
  -4  -2  -6    3.85    0.89
  -4  -2  -6    3.57    0.83
  -4  -2  -6    3.23    0.93
  -4  -2  -6    3.64    0.76
  -4  -2  -6    3.40    0.39
   4   2   7   66.52    3.77
  -4  -2  -7   67.59    2.93
  -4  -2  -7   67.55    3.27
  -4  -2  -7   70.32    3.28
   4   2   7   68.10    1.97
  -4  -2  -7   68.41    1.65
  -4  -2  -7   68.13    3.04
  -4  -2  -7   67.02    1.56
   4   2   7   63.70    1.96
   4   2   8    0.20    0.35
   4   2   8    0.08    0.57
   4   2   8    0.13    0.33
  -4  -2  -8    0.15    0.45
  -4  -2  -8   -0.16    0.60
   4   2   8   -0.10    0.37
   4   2   8    0.38    0.40
  -4  -2  -8    0.15    0.33
   4   2   8   -0.19    0.41
  -4  -2  -8    0.63    0.54
  -4  -2  -8    0.20    0.24
   4   2   9  161.95    3.17
  -4  -2  -9  162.79    2.72
   4   2   9  161.74    3.23
   4   2   9  158.24    3.30
   4   2   9  151.39    3.26
  -4  -2  -9  159.03    2.56
   4   2   9  164.63    3.02
   4   2  10  504.78    6.15
   4   2  10  495.63    6.30
   4   2  10  523.91    5.86
  -4  -2 -10  513.20    9.92
   4   2  10  502.65    5.27
  -4  -2 -10  514.73    5.39
  -4  -2 -10  516.24    5.36
   4   2  10  513.99    6.21
  -4  -2 -10  481.35    8.94
  -4  -2 -10  510.72    5.21
   4   2  11  188.23    3.48
   4   2  11  186.19    2.77
  -4  -2 -11  190.79    5.65
   4   2  11  192.47    3.30
  -4  -2 -11  187.44    2.93
  -4  -2 -11  191.30    2.93
   4   2  11  190.36    3.55
  -4  -2 -11  177.39    5.18
  -4  -2 -11  187.79    2.77
   4   2  12   15.45    0.78
  -4  -2 -12   17.05    0.81
   4   2  12   16.81    1.05
  -4  -2 -12   16.23    0.82
   4   2  12   17.08    1.00
  -4  -2 -12   16.51    0.82
  -4  -2 -12   17.23    0.86
   4   2  13   13.86    0.67
  -4  -2 -13   14.79    0.72
  -4  -2 -13   14.30    0.66
   4   2  13   15.77    0.97
  -4  -2 -13   13.53    0.69
   4   2  13   15.98    0.88
  -4  -2 -13   14.25    0.72
  -4  -2 -14   15.43    0.61
  -4  -2 -14   14.83    0.53
  -4  -2 -14   16.38    0.66
   4   2  14   15.15    0.76
   4   2  14   16.34    0.73
  -4  -2 -14   14.95    0.63
   4   2  15    6.96    0.43
  -4  -2 -15    6.48    0.38
   4   3 -13   49.86    0.94
  -4  -3  13   55.29    0.99
  -4  -3  12   92.83    1.44
   4   3 -12  100.29    1.70
  -4  -3  12  102.94    1.68
   4   3 -12   90.20    1.52
  -4  -3  11  184.66    2.53
   4   3 -11  196.50    2.80
   4   3 -11  182.59    2.47
  -4  -3  11  201.40    2.75
   4   3 -11  193.33    2.74
  -4  -3  11  188.00    2.43
   4   3 -11  186.78    2.53
  -4  -3  11  203.25    2.76
  -4  -3  10   38.99    1.22
   4   3 -10   43.86    1.43
  -4  -3  10   44.22    1.37
   4   3 -10   39.86    1.22
   4   3 -10   42.12    1.29
   4   3 -10   44.30    1.40
  -4  -3  10   42.42    1.23
   4   3 -10   41.95    1.30
  -4  -3  10   42.94    1.20
  -4  -3  10   44.30    1.39
  -4  -3   9   26.22    1.05
   4   3  -9   27.30    1.20
   4   3  -9   26.07    1.12
   4   3  -9   27.76    1.18
  -4  -3   9   27.59    1.15
  -4  -3   9   28.15    1.08
  -4  -3   9   26.56    1.06
   4   3  -9   27.06    1.12
   4   3  -9   27.34    1.12
  -4  -3   9   27.81    1.17
   4   3  -8   29.64    1.27
   4   3  -8   30.25    1.23
   4   3  -8   30.23    1.24
  -4  -3   8   29.36    1.20
  -4  -3   8   31.29    1.19
  -4  -3   8   30.43    1.17
   4   3  -8   31.11    1.23
   4   3  -8   30.90    1.23
  -4  -3   8   29.05    1.21
   4   3  -8   29.26    1.14
   4   3  -7  105.31    2.35
   4   3  -7   98.56    2.26
   4   3  -7  100.48    2.23
  -4  -3   7  100.63    2.16
  -4  -3   7  102.55    2.16
  -4  -3   7  100.85    2.13
   4   3  -7   99.92    2.22
   4   3  -7  100.50    2.21
  -4  -3   7   99.38    2.17
   4   3  -7   93.64    2.04
   4   3  -6   76.57    1.98
  -4  -3   6   77.91    1.61
   4   3  -6   76.02    1.94
   4   3  -6   72.02    1.86
  -4  -3   6   73.07    1.79
  -4  -3   6   76.95    1.83
  -4  -3   6   73.10    1.78
   4   3  -6   75.35    1.87
   4   3  -6   76.90    1.89
  -4  -3   6   73.10    1.83
   4   3  -5    4.91    0.55
  -4  -3   5    5.17    0.47
   4   3  -5    5.15    0.55
   4   3  -5    4.82    0.55
  -4  -3   5    4.71    0.49
  -4  -3   5    4.78    0.52
   4   3  -5    4.86    0.55
   4   3  -5    5.14    0.54
   4   3  -5    4.67    0.48
   4   3  -5    3.64    0.40
  -4  -3   5    4.29    0.50
  -4  -3   4    7.05    0.57
   4   3  -4    6.96    0.55
   4   3  -3  290.86    5.77
  -4  -3   3  287.09    3.31
   4   3  -3  283.84    3.38
   4   3  -2   29.28    1.81
  -4  -3   2   30.05    1.59
  -4  -3   2   29.42    0.99
  -4  -3   2   29.78    1.85
   4   3  -1   27.66    1.77
  -4  -3   1   27.63    1.57
  -4  -3   1   27.29    0.92
  -4  -3   1   27.22    1.79
   4   3   0    0.31    0.53
  -4  -3   0    0.57    0.29
  -4  -3   0    0.53    0.53
   4   3   1  564.88    9.45
  -4  -3  -1  584.58    4.98
  -4  -3  -1  573.13    7.12
   4   3   2   38.74    2.40
  -4  -3  -2   41.91    1.07
  -4  -3  -2   43.47    2.28
  -4  -3  -2   39.44    1.82
   4   3   3   39.63    2.47
  -4  -3  -3   37.03    1.85
  -4  -3  -3   38.03    1.02
  -4  -3  -3   40.04    2.24
   4   3   4  315.70    7.17
  -4  -3  -4  329.45    6.58
  -4  -3  -4  309.03    5.78
  -4  -3  -4  321.58    3.66
  -4  -3  -4  323.38    6.41
   4   3   5   22.53    2.01
  -4  -3  -5   23.85    1.82
  -4  -3  -5   23.30    1.77
  -4  -3  -5   24.07    0.94
   4   3   6   79.79    3.89
  -4  -3  -6   80.64    3.35
  -4  -3  -6   79.98    3.41
  -4  -3  -6   85.24    3.47
  -4  -3  -6   79.23    3.04
  -4  -3  -6   82.83    1.77
  -4  -3  -7   29.13    1.11
   4   3   7   27.23    1.22
   4   3   7   26.91    2.39
   4   3   7   25.67    1.25
  -4  -3  -7   28.71    2.14
  -4  -3  -7   27.29    2.07
  -4  -3  -7   28.25    1.02
  -4  -3  -7   29.54    1.92
  -4  -3  -7   28.01    1.05
   4   3   7   27.41    1.29
   4   3   8   92.52    2.35
   4   3   8   85.33    4.35
  -4  -3  -8   87.82    3.79
  -4  -3  -8   94.09    3.96
   4   3   8   95.42    2.43
  -4  -3  -8   94.64    2.03
  -4  -3  -8   88.74    3.39
  -4  -3  -8   93.72    2.02
  -4  -3  -8   94.07    1.94
   4   3   8   91.79    2.40
   4   3   9  116.79    2.71
  -4  -3  -9  125.89    2.40
  -4  -3  -9  121.48    2.38
   4   3   9  121.91    2.85
   4   3   9  123.37    2.78
   4   3   9  113.94    2.75
  -4  -3  -9  121.57    2.30
   4   3  10  433.79    5.59
   4   3  10  427.88    5.69
   4   3  10  443.81    5.36
  -4  -3 -10  451.55    4.98
  -4  -3 -10  449.21    4.93
   4   3  10  447.35    5.65
  -4  -3 -10  438.32    4.84
  -4  -3 -10  431.35    4.69
   4   3  11   25.93    1.32
  -4  -3 -11   25.34    2.08
  -4  -3 -11   25.28    1.07
   4   3  11   23.73    1.17
  -4  -3 -11   26.66    1.11
   4   3  11   24.90    1.29
  -4  -3 -11   26.28    1.06
  -4  -3 -11   24.95    1.03
  -4  -3 -12   66.29    1.61
   4   3  12   67.24    1.96
   4   3  12   66.83    1.58
  -4  -3 -12   64.29    1.54
  -4  -3 -12   67.14    1.65
   4   3  12   64.41    1.90
  -4  -3 -12   64.50    1.55
  -4  -3 -12   61.97    1.49
   4   3  12   66.76    1.82
  -4  -3 -13    9.94    0.65
  -4  -3 -13    9.68    0.60
   4   3  13   10.17    0.83
   4   3  13   10.08    0.59
  -4  -3 -13    9.60    0.57
   4   3  13   10.27    0.77
  -4  -3 -13    9.88    0.59
   4   3  13    8.18    0.57
  -4  -3 -14   11.46    0.57
  -4  -3 -14   10.75    0.52
  -4  -3 -14   11.67    0.59
   4   3  14   11.55    0.67
  -4  -3 -14   11.98    0.56
  -4  -3 -14   10.85    0.53
  -4  -3 -15   -0.24    0.23
  -4  -3 -15    0.17    0.22
  -4  -3 -15    0.26    0.25
   4   3  15   -0.04    0.28
  -4  -3 -15    0.01    0.23
   4   4 -12   32.67    0.85
  -4  -4  12   33.07    0.85
  -4  -4  11   14.41    0.64
   4   4 -11   16.06    0.74
   4   4 -11   12.85    0.57
   4   4 -11   14.30    0.65
  -4  -4  11   16.54    0.75
  -4  -4  11   14.11    0.62
   4   4 -11   15.29    0.66
  -4  -4  10  195.95    2.77
   4   4 -10  195.83    2.90
   4   4 -10  178.23    2.61
   4   4 -10  187.44    2.70
   4   4 -10  191.44    2.74
  -4  -4  10  197.44    2.82
  -4  -4  10  191.03    2.64
   4   4 -10  196.08    2.73
   4   4 -10  171.11    2.47
  -4  -4   9    9.65    0.66
   4   4  -9   10.11    0.78
   4   4  -9   10.46    0.74
   4   4  -9   11.10    0.74
   4   4  -9   10.65    0.76
  -4  -4   9   10.49    0.77
  -4  -4   9   11.65    0.73
   4   4  -9   11.07    0.74
  -4  -4   8  158.81    2.65
   4   4  -8  172.48    3.02
   4   4  -8  172.55    2.97
   4   4  -8  168.72    2.85
  -4  -4   8  171.16    2.84
   4   4  -8  175.73    2.93
   4   4  -8  172.39    2.89
  -4  -4   8  168.59    2.86
  -4  -4   8  171.18    2.86
  -4  -4   8  171.72    2.75
   4   4  -7   10.20    0.79
   4   4  -7    9.83    0.77
   4   4  -7   10.38    0.77
  -4  -4   7    9.84    0.77
  -4  -4   7   10.87    0.76
  -4  -4   7   10.14    0.74
   4   4  -7   10.39    0.79
   4   4  -7   10.24    0.78
   4   4  -7   10.49    0.69
  -4  -4   7   10.03    0.78
   4   4  -6  224.63    3.52
   4   4  -6  223.23    3.53
   4   4  -6  215.84    3.33
  -4  -4   6  215.12    3.25
  -4  -4   6  226.19    3.31
  -4  -4   6  222.83    3.37
   4   4  -6  229.67    3.44
   4   4  -6  220.99    3.38
   4   4  -6  223.98    3.18
  -4  -4   6  216.80    3.30
   4   4  -5  143.70    2.75
   4   4  -5  148.38    2.78
   4   4  -5  139.03    2.57
  -4  -4   5  135.04    2.46
  -4  -4   5  146.79    2.60
  -4  -4   5  139.30    2.60
   4   4  -5  146.41    2.66
   4   4  -5  144.13    2.51
  -4  -4   5  153.26    2.57
   4   4  -4   28.94    1.20
   4   4  -4   30.19    1.22
   4   4  -4   31.16    1.28
   4   4  -4   28.34    1.12
  -4  -4   4   26.13    1.03
  -4  -4   4   28.75    1.12
  -4  -4   4   28.83    1.14
   4   4  -4   29.75    1.17
   4   4  -4   29.42    1.10
  -4  -4   4   31.76    1.15
  -4  -4   3  340.81    3.80
   4   4  -3  337.03    3.99
   4   4  -2  103.46    3.45
  -4  -4   2  105.59    1.93
   4   4  -2  101.11    2.00
  -4  -4   1  598.84    5.36
  -4  -4   1  593.50    8.79
   4   4  -1  599.06    8.40
   4   4  -1  615.66    5.71
  -4  -4   0    3.56    0.44
  -4  -4   0    3.57    0.80
   4   4   0    3.56    0.73
   4   4   0    3.31    0.41
   4   4   1   21.00    1.80
  -4  -4  -1   22.14    1.69
   4   4   1   21.35    0.89
   4   4   2  719.25   10.90
  -4  -4  -2  746.62    6.32
   4   4   2  724.19    6.41
   4   4   3   45.40    2.66
  -4  -4  -3   47.52    2.55
  -4  -4  -3   47.61    2.31
   4   4   3   46.25    1.25
  -4  -4  -3   47.09    1.31
   4   4   4    1.07    0.65
  -4  -4  -4    1.13    0.65
  -4  -4  -4    1.72    0.57
  -4  -4  -4    0.94    0.30
   4   4   5  229.22    6.38
  -4  -4  -5  247.96    6.06
  -4  -4  -5  237.46    5.66
  -4  -4  -5  238.51    5.66
  -4  -4  -5  242.28    3.25
   4   4   6   44.33    2.93
  -4  -4  -6   45.83    2.55
  -4  -4  -6   46.71    2.61
  -4  -4  -6   49.00    1.37
  -4  -4  -6   48.41    1.39
  -4  -4  -6   47.37    1.40
   4   4   6   47.11    1.57
   4   4   7   51.63    1.66
   4   4   7   47.92    3.18
   4   4   7   44.72    1.60
  -4  -4  -7   48.87    2.69
  -4  -4  -7   50.10    2.80
  -4  -4  -7   50.88    1.44
  -4  -4  -7   49.78    1.43
  -4  -4  -7   52.87    1.54
  -4  -4  -7   51.14    1.48
   4   4   7   48.88    1.67
   4   4   8   91.21    2.29
  -4  -4  -8   98.26    3.87
   4   4   8   99.54    2.48
  -4  -4  -8   98.88    2.07
  -4  -4  -8   98.29    2.06
  -4  -4  -8   93.21    1.97
  -4  -4  -8   98.37    2.14
  -4  -4  -8   93.50    2.03
   4   4   8   91.20    2.35
   4   4   9  347.51    4.78
   4   4   9  353.68    4.96
  -4  -4  -9  354.79    4.32
  -4  -4  -9  355.80    4.26
  -4  -4  -9  340.47    4.00
  -4  -4  -9  351.97    4.34
  -4  -4  -9  345.41    4.28
   4   4   9  340.75    4.87
  -4  -4  -9  345.12    7.90
   4   4  10   25.70    1.29
  -4  -4 -10   27.59    2.13
   4   4  10   26.03    1.07
  -4  -4 -10   26.81    1.11
   4   4  10   27.49    1.25
  -4  -4 -10   27.14    1.14
  -4  -4 -10   27.15    1.04
   4   4  10   27.71    1.35
   4   4  10   24.92    1.27
  -4  -4 -10   27.74    1.16
  -4  -4 -10   26.66    1.09
   4   4  10   26.27    1.34
  -4  -4 -10   27.05    1.05
  -4  -4 -11  509.09    5.25
   4   4  11  501.86    5.89
   4   4  11  478.68    5.84
   4   4  11  480.68    5.01
  -4  -4 -11  478.64    8.63
  -4  -4 -11  488.97    4.83
  -4  -4 -11  495.35    5.24
   4   4  11  506.57    5.62
  -4  -4 -11  511.58    5.24
   4   4  11  506.94    5.85
  -4  -4 -11  492.97    4.90
  -4  -4 -11  495.11    5.18
  -4  -4 -12   44.33    1.33
  -4  -4 -12   44.89    1.33
   4   4  12   42.71    1.57
   4   4  12   42.47    1.25
  -4  -4 -12   40.61    1.15
   4   4  12   42.29    1.46
  -4  -4 -12   42.49    1.30
   4   4  12   41.73    1.49
  -4  -4 -12   41.53    1.19
  -4  -4 -12   43.38    1.29
  -4  -4 -13    5.65    0.53
  -4  -4 -13    5.57    0.51
   4   4  13    4.26    0.61
   4   4  13    5.40    0.47
   4   4  13    5.93    0.59
  -4  -4 -13    5.43    0.44
  -4  -4 -14    2.65    0.37
  -4  -4 -14    2.36    0.33
   4   4  14    2.32    0.45
  -4  -4 -14    2.18    0.35
   4   4  14    2.22    0.29
   4   4  14    2.16    0.41
  -4  -4 -14    2.53    0.31
   4   4  14    2.60    0.34
  -4  -4 -15    9.19    0.42
  -4  -4 -15    9.63    0.43
   4   4  15    8.42    0.49
  -4  -5  11  103.08    1.39
   4   5 -11   89.81    1.34
   4   5 -11  112.50    1.62
   4   5 -11  103.62    1.49
  -4  -5  11  120.35    1.69
  -4  -5  11  100.44    1.42
  -4  -5  10    6.51    0.49
   4   5 -10    6.22    0.51
   4   5 -10    5.40    0.46
   4   5 -10    6.17    0.50
  -4  -5  10    7.10    0.57
  -4  -5  10    6.55    0.48
   4   5 -10    6.70    0.51
  -4  -5   9  331.24    3.85
   4   5  -9  326.06    3.85
   4   5  -9  316.84    3.80
   4   5  -9  328.26    3.83
  -4  -5   9  330.67    3.83
  -4  -5   9  312.20    3.44
  -4  -5   9  323.15    3.71
   4   5  -9  329.47    3.76
  -4  -5   8   92.88    2.08
   4   5  -8   91.11    2.07
   4   5  -8   93.88    2.09
   4   5  -8   95.11    2.08
  -4  -5   8   90.52    2.04
  -4  -5   8   92.14    1.99
   4   5  -8   91.51    2.00
   4   5  -8   85.00    1.77
   4   5  -7   13.84    0.89
   4   5  -7   14.10    0.90
   4   5  -7   14.83    0.92
  -4  -5   7   13.87    0.89
  -4  -5   7   13.93    0.87
   4   5  -7   12.86    0.85
   4   5  -7   12.74    0.77
   4   5  -6   89.11    2.12
   4   5  -6   91.09    2.18
   4   5  -6   95.86    2.28
  -4  -5   6   86.94    2.05
  -4  -5   6   90.13    2.10
   4   5  -6   91.02    2.10
   4   5  -6   90.07    2.00
  -4  -5   6   86.65    1.92
   4   5  -5   66.27    1.82
   4   5  -5   66.95    1.93
   4   5  -5   68.75    1.98
  -4  -5   5   64.55    1.74
  -4  -5   5   67.60    1.82
   4   5  -5   69.31    1.82
   4   5  -5   67.50    1.75
  -4  -5   5   66.79    1.70
   4   5  -4  112.48    2.35
   4   5  -4  114.68    2.57
   4   5  -4  114.00    2.46
  -4  -5   4  105.92    2.19
  -4  -5   4  110.53    2.26
  -4  -5   4  113.94    2.38
   4   5  -4  110.98    2.31
   4   5  -4  112.16    2.28
  -4  -5   4  118.66    2.31
  -4  -5   4  113.06    2.25
  -4  -5   3   49.33    1.53
   4   5  -3   48.94    1.51
   4   5  -3   48.91    1.63
   4   5  -3   50.73    1.61
  -4  -5   3   45.95    1.39
  -4  -5   3   46.32    1.43
  -4  -5   3   51.41    1.57
   4   5  -3   50.43    1.52
   4   5  -3   48.41    1.49
  -4  -5   3   51.63    1.46
  -4  -5   3   52.40    1.54
   4   5  -2   40.94    1.35
   4   5  -2   40.58    1.46
   4   5  -2   39.33    1.39
  -4  -5   2   40.63    1.32
  -4  -5   2   36.84    1.24
  -4  -5   2   39.85    1.38
  -4  -5   2   39.15    1.35
   4   5  -2   38.03    1.30
   4   5  -2   37.69    1.30
  -4  -5   2   38.69    1.31
   4   5  -1  426.74    4.98
   4   5  -1  406.82    4.79
   4   5  -1  419.41    7.52
  -4  -5   1  403.26    4.71
   4   5  -1  400.99    4.66
  -4  -5   0    7.76    1.10
   4   5   0    9.49    1.15
  -4  -5   0    8.62    0.58
   4   5   0    8.95    0.66
  -4  -5  -1    8.10    1.14
   4   5   1    8.22    0.57
  -4  -5  -1    8.72    0.58
   4   5   1    8.44    0.63
  -4  -5  -2   38.33    2.36
   4   5   2   36.39    1.17
  -4  -5  -2   37.11    1.18
   4   5   2   36.49    1.25
  -4  -5  -3    0.38    0.63
   4   5   3    0.23    0.27
  -4  -5  -3    0.06    0.26
  -4  -5  -4    3.36    0.39
   4   5   4    2.42    0.40
  -4  -5  -4    2.43    0.43
   4   5   5  656.18    6.52
   4   5   5  617.62   10.98
   4   5   5  644.25    6.64
  -4  -5  -5  687.11    9.90
  -4  -5  -5  652.52    6.12
   4   5   5  650.26    6.46
  -4  -5  -5  680.47    5.89
  -4  -5  -5  690.15    6.38
  -4  -5  -5  679.66    6.31
  -4  -5  -5  642.24    6.05
   4   5   5  676.53    6.74
   4   5   6   96.10    2.24
  -4  -5  -6   98.48    1.96
  -4  -5  -6   96.69    2.09
  -4  -5  -6  100.71    2.16
  -4  -5  -6   97.79    2.12
   4   5   6   95.65    2.28
   4   5   7   95.69    2.29
  -4  -5  -7   96.53    1.99
  -4  -5  -7   96.38    2.00
  -4  -5  -7   95.18    2.08
  -4  -5  -7   97.80    2.16
  -4  -5  -7   95.05    2.10
   4   5   7   95.57    2.32
   4   5   8  172.99    3.19
  -4  -5  -8  173.02    2.83
  -4  -5  -8  178.18    2.81
  -4  -5  -8  176.95    2.87
  -4  -5  -8  177.43    2.98
  -4  -5  -8  178.82    3.00
   4   5   8  169.62    3.20
  -4  -5  -8  183.25    3.01
  -4  -5  -8  179.31    5.72
   4   5   9   27.29    1.30
   4   5   9   27.50    1.31
   4   5   9   26.90    1.09
  -4  -5  -9   26.72    1.11
  -4  -5  -9   27.37    1.13
  -4  -5  -9   27.59    1.17
  -4  -5  -9   28.17    1.09
  -4  -5  -9   26.32    1.15
   4   5   9   27.02    1.29
  -4  -5  -9   28.12    1.15
  -4  -5 -10   18.48    0.95
   4   5  10   17.20    1.06
   4   5  10   17.97    1.06
   4   5  10   16.77    1.04
   4   5  10   15.82    0.86
  -4  -5 -10   16.39    0.88
  -4  -5 -10   18.11    0.93
  -4  -5 -10   17.22    0.83
   4   5  10   15.73    0.99
  -4  -5 -10   17.23    0.95
  -4  -5 -10   16.42    0.91
  -4  -5 -10   16.99    0.89
  -4  -5 -11   48.74    1.44
   4   5  11   46.75    1.62
   4   5  11   43.29    1.57
   4   5  11   48.09    1.36
   4   5  11   49.01    1.57
  -4  -5 -11   46.39    1.40
   4   5  11   46.64    1.58
  -4  -5 -11   47.74    1.45
  -4  -5 -11   47.33    1.33
  -4  -5 -12   53.47    1.41
  -4  -5 -12   52.78    1.45
   4   5  12   51.85    1.62
   4   5  12   50.73    1.32
   4   5  12   54.28    1.57
   4   5  12   48.98    1.52
  -4  -5 -12   48.48    1.17
  -4  -5 -12   50.20    1.38
  -4  -5 -13   12.41    0.67
  -4  -5 -13   12.34    0.67
   4   5  13   10.98    0.77
   4   5  13   11.46    0.59
  -4  -5 -13   12.19    0.64
   4   5  13   12.66    0.76
  -4  -5 -13   11.48    0.51
  -4  -5 -14   41.14    0.97
  -4  -5 -14   40.38    0.96
   4   5  14   41.97    1.15
  -4  -5 -14   43.24    0.97
   4   5  14   36.84    0.79
   4   5  14   40.26    1.07
   4   5  14   37.84    0.96
  -4  -6  10    1.21    0.27
  -4  -6  10    0.68    0.28
   4   6 -10    1.28    0.28
   4   6 -10    0.93    0.32
   4   6 -10    0.87    0.27
  -4  -6  10    1.16    0.35
  -4  -6   9  196.82    2.51
   4   6  -9  188.99    2.43
   4   6  -9  190.13    2.53
   4   6  -9  196.84    2.56
  -4  -6   9  194.63    2.34
  -4  -6   9  202.18    2.60
  -4  -6   9  179.11    2.22
  -4  -6   9  189.59    2.49
   4   6  -9  196.28    2.47
  -4  -6   8   54.40    1.45
   4   6  -8   51.85    1.37
   4   6  -8   53.01    1.47
   4   6  -8   54.58    1.47
  -4  -6   8   54.37    1.45
  -4  -6   8   51.87    1.32
  -4  -6   8   53.49    1.42
   4   6  -8   52.27    1.37
   4   6  -8   47.59    1.24
  -4  -6   7   97.85    2.11
   4   6  -7   96.11    2.00
   4   6  -7   99.28    2.16
   4   6  -7   99.84    2.15
  -4  -6   7   96.34    2.06
  -4  -6   7   95.98    1.98
  -4  -6   7  102.91    2.11
   4   6  -7   95.31    2.00
   4   6  -7   91.08    1.89
  -4  -6   6  312.18    4.15
   4   6  -6  299.85    3.92
   4   6  -6  321.80    4.29
   4   6  -6  322.20    4.19
  -4  -6   6  302.36    3.99
  -4  -6   6  320.67    4.06
  -4  -6   6  310.46    4.06
   4   6  -6  305.65    3.92
   4   6  -6  300.37    3.85
  -4  -6   5    0.15    0.38
   4   6  -5    0.46    0.36
   4   6  -5    1.03    0.46
   4   6  -5    0.48    0.38
  -4  -6   5    0.87    0.45
  -4  -6   5    0.70    0.42
  -4  -6   5    0.42    0.47
   4   6  -5    0.28    0.43
   4   6  -5    1.07    0.40
  -4  -6   4    0.41    0.40
   4   6  -4    0.58    0.33
   4   6  -4    0.29    0.42
   4   6  -4    0.93    0.41
  -4  -6   4    0.37    0.40
  -4  -6   4    1.00    0.45
   4   6  -4    0.17    0.40
   4   6  -4    0.41    0.35
  -4  -6   4    0.44    0.36
  -4  -6   4    0.01    0.31
  -4  -6   3    4.41    0.59
   4   6  -3    5.17    0.55
   4   6  -3    4.89    0.62
   4   6  -3    4.83    0.61
  -4  -6   3    4.62    0.54
  -4  -6   3    4.95    0.60
  -4  -6   3    5.71    0.64
   4   6  -3    3.99    0.51
   4   6  -3    4.42    0.54
  -4  -6   3    5.02    0.56
  -4  -6   2  213.63    3.37
  -4  -6   2  208.80    3.27
   4   6  -2  211.83    3.50
   4   6  -2  206.60    3.17
   4   6  -2  214.44    3.57
   4   6  -2  212.08    3.40
   4   6  -2  208.93    5.58
  -4  -6   2  198.59    3.06
  -4  -6   2  209.47    3.42
   4   6  -2  198.20    3.07
   4   6  -2  211.88    3.27
  -4  -6   2  206.18    3.25
   4   6  -2  214.02    3.39
  -4  -6   1   82.52    1.95
   4   6  -1   85.74    2.14
   4   6  -1   88.06    2.18
   4   6  -1   83.02    1.90
   4   6  -1   81.92    2.06
   4   6  -1   84.26    3.54
  -4  -6   1   84.82    2.10
  -4  -6   1   88.48    2.13
  -4  -6   1   82.79    2.00
   4   6  -1   83.76    2.03
   4   6   0   38.96    1.45
  -4  -6   0   38.21    1.29
   4   6   0   41.51    1.47
   4   6   0   39.61    1.42
   4   6   0   39.47    2.43
  -4  -6   0   37.75    1.41
  -4  -6   0   39.93    1.41
   4   6   0   39.09    1.28
  -4  -6   0   39.15    1.38
   4   6   0   38.18    1.36
   4   6   1   20.04    0.97
   4   6   1   20.35    1.05
   4   6   1   21.68    1.07
  -4  -6  -1   19.32    1.00
  -4  -6  -1   18.77    1.01
   4   6   1   20.64    0.96
  -4  -6  -1   20.08    0.94
  -4  -6  -1   20.67    0.89
  -4  -6  -1   20.60    1.02
   4   6   1   20.76    1.01
   4   6   2  353.86    4.54
   4   6   2  348.43    4.34
   4   6   2  362.48    4.58
   4   6   2  362.69    4.35
  -4  -6  -2  343.62    4.41
   4   6   2  344.12    4.18
  -4  -6  -2  340.36    4.19
  -4  -6  -2  347.09    4.06
  -4  -6  -2  354.18    4.38
   4   6   2  353.03    4.37
   4   6   3   27.97    1.21
   4   6   3   27.01    1.15
   4   6   3   27.81    1.21
   4   6   3   31.32    1.21
   4   6   3   29.09    1.13
  -4  -6  -3   28.13    1.14
  -4  -6  -3   29.23    1.11
  -4  -6  -3   27.39    1.09
  -4  -6  -3   28.97    1.19
   4   6   4  862.30    7.98
   4   6   4  874.93    7.87
   4   6   4  879.17    8.06
   4   6   4  846.43    7.65
   4   6   4  875.59    7.84
  -4  -6  -4  873.32    7.71
  -4  -6  -4  890.80    7.69
  -4  -6  -4  885.60    7.64
  -4  -6  -4  870.73    7.71
   4   6   5   18.93    1.02
   4   6   5   21.31    1.10
   4   6   5   20.65    1.04
  -4  -6  -5   18.91    0.98
  -4  -6  -5   20.36    1.00
  -4  -6  -5   19.10    0.97
  -4  -6  -5   19.31    0.96
  -4  -6  -5   18.92    1.87
   4   6   5   18.87    1.04
   4   6   6  187.85    3.25
  -4  -6  -6  192.40    2.77
  -4  -6  -6  192.46    3.12
  -4  -6  -6  192.36    3.02
  -4  -6  -6  194.63    3.14
  -4  -6  -6  187.57    3.07
  -4  -6  -6  178.57    2.89
  -4  -6  -6  196.45    3.17
  -4  -6  -6  190.88    5.84
   4   6   6  188.22    3.23
   4   6   7  212.28    3.51
  -4  -6  -7  214.05    3.03
  -4  -6  -7  210.91    2.98
  -4  -6  -7  211.60    3.30
  -4  -6  -7  216.35    3.29
  -4  -6  -7  213.42    3.35
  -4  -6  -7  219.11    3.37
  -4  -6  -7  221.25    6.42
   4   6   7  212.63    3.49
   4   6   8  214.02    3.55
  -4  -6  -8  215.96    3.11
  -4  -6  -8  215.08    3.06
  -4  -6  -8  217.10    3.28
  -4  -6  -8  212.84    3.29
  -4  -6  -8  214.78    3.37
   4   6   8  207.84    3.45
  -4  -6  -8  221.82    3.38
   4   6   8  206.46    3.07
  -4  -6  -9  284.16    3.70
   4   6   9  285.92    4.13
   4   6   9  281.53    4.14
  -4  -6  -9  273.57    3.60
  -4  -6  -9  278.75    3.60
  -4  -6  -9  282.36    3.72
  -4  -6  -9  283.98    3.86
  -4  -6  -9  282.86    3.89
   4   6   9  267.78    3.99
  -4  -6  -9  287.08    3.86
  -4  -6 -10   97.17    1.97
  -4  -6 -10   97.24    2.04
   4   6  10   97.71    2.34
   4   6  10   95.08    2.23
   4   6  10   96.73    1.95
  -4  -6 -10   94.99    1.97
  -4  -6 -10   97.14    1.99
   4   6  10   91.12    2.11
  -4  -6 -10   99.40    2.13
  -4  -6 -10   99.09    2.09
  -4  -6 -11   95.90    1.87
  -4  -6 -11   92.60    1.93
   4   6  11   96.80    2.21
   4   6  11   87.95    2.03
   4   6  11   94.17    1.84
   4   6  11   91.21    2.08
  -4  -6 -11   92.01    1.76
  -4  -6 -11   96.30    2.01
  -4  -6 -11   91.84    1.88
  -4  -6 -12    8.43    0.57
  -4  -6 -12    8.08    0.60
   4   6  12    8.10    0.69
  -4  -6 -12    8.72    0.56
   4   6  12    8.31    0.55
   4   6  12    8.37    0.67
   4   6  12    8.40    0.65
  -4  -6 -13    9.24    0.53
  -4  -6 -13    9.03    0.55
   4   6  13    9.44    0.64
  -4  -6 -13    9.31    0.50
   4   6  13    9.33    0.49
   4   6  13   10.38    0.63
  -4  -6 -14    8.77    0.44
   4   6  14    9.01    0.55
  -4  -6 -14    8.80    0.40
   4   6  14    8.86    0.52
   4   6  14    8.52    0.50
  -4  -7   9   57.72    1.05
   4   7  -9   56.31    1.09
   4   7  -9   59.53    1.11
  -4  -7   9   57.39    1.10
   4   7  -8    0.21    0.26
  -4  -7   8   -0.07    0.29
   4   7  -8    0.08    0.22
   4   7  -8    0.46    0.33
  -4  -7   8    0.50    0.26
   4   7  -8   -0.03    0.29
  -4  -7   8   -0.05    0.34
  -4  -7   8    0.31    0.32
  -4  -7   8    0.17    0.25
   4   7  -8    0.18    0.22
  -4  -7   7   62.97    1.52
   4   7  -7   58.43    1.43
   4   7  -7   58.13    1.31
   4   7  -7   65.32    1.56
   4   7  -7   63.58    1.51
  -4  -7   7   65.86    1.52
  -4  -7   7   63.07    1.50
  -4  -7   7   60.80    1.42
  -4  -7   7   63.40    1.51
   4   7  -7   52.44    1.33
  -4  -7   6  122.84    2.33
   4   7  -6  115.34    2.22
   4   7  -6  110.36    2.00
   4   7  -6  124.72    2.36
   4   7  -6  119.91    2.27
  -4  -7   6  118.88    2.22
  -4  -7   6  119.16    2.21
  -4  -7   6  123.26    2.28
   4   7  -6  118.01    2.08
   4   7  -6  116.21    2.12
   4   7  -6  108.08    2.11
  -4  -7   5    3.63    0.59
   4   7  -5    3.65    0.46
   4   7  -5    6.45    0.66
   4   7  -5    3.32    0.54
  -4  -7   5    3.45    0.54
  -4  -7   5    3.08    0.50
  -4  -7   5    2.96    0.55
   4   7  -5    4.28    0.51
   4   7  -5    3.97    0.52
   4   7  -5    5.71    0.58
  -4  -7   4    4.01    0.60
   4   7  -4    3.74    0.54
   4   7  -4    3.48    0.45
   4   7  -4    3.64    0.60
   4   7  -4    4.38    0.54
   4   7  -4    3.99    0.57
  -4  -7   4    3.30    0.53
  -4  -7   4    3.77    0.58
  -4  -7   4    3.81    0.60
  -4  -7   4    4.20    0.48
   4   7  -4    4.24    0.57
  -4  -7   3  127.37    2.56
   4   7  -3  133.09    2.70
   4   7  -3  135.37    2.72
   4   7  -3  125.14    2.30
   4   7  -3  129.21    2.59
  -4  -7   3  125.09    2.43
  -4  -7   3  130.14    2.63
  -4  -7   3  137.11    2.68
  -4  -7   3  133.32    2.49
   4   7  -3  128.36    2.61
  -4  -7   2  114.82    2.42
   4   7  -2  118.02    2.54
   4   7  -2  116.27    2.53
   4   7  -2  113.20    2.41
  -4  -7   2  108.23    2.23
  -4  -7   2  118.73    2.54
  -4  -7   2  114.06    2.36
   4   7  -2  114.61    2.44
  -4  -7   2  112.71    2.47
   4   7  -1    2.08    0.47
  -4  -7   1    1.84    0.42
   4   7  -1    1.46    0.44
   4   7  -1    1.82    0.47
  -4  -7   1    1.91    0.41
  -4  -7   1    2.07    0.49
  -4  -7   1    2.10    0.50
  -4  -7   1    1.20    0.41
   4   7  -1    1.66    0.44
   4   7   0   65.62    1.78
   4   7   0   64.40    1.88
  -4  -7   0   60.84    1.69
   4   7   0   65.08    1.89
   4   7   0   64.85    3.27
   4   7   0   64.20    3.04
  -4  -7   0   64.58    1.86
  -4  -7   0   64.09    1.85
   4   7   0   63.27    1.70
  -4  -7   0   66.08    1.84
   4   7   0   65.65    1.84
   4   7   1  225.70    3.43
   4   7   1  228.65    3.59
  -4  -7  -1  213.87    3.20
   4   7   1  232.83    3.64
   4   7   1  220.72    3.31
  -4  -7  -1  222.44    3.22
  -4  -7  -1  219.14    3.52
  -4  -7  -1  222.93    3.50
   4   7   1  225.07    3.50
   4   7   2  423.17    5.10
   4   7   2  427.05    4.99
   4   7   2  424.42    5.17
  -4  -7  -2  418.14    4.83
   4   7   2  418.53    4.95
  -4  -7  -2  415.40    5.04
   4   7   2  409.36    4.81
  -4  -7  -2  404.92    4.72
  -4  -7  -2  431.81    5.09
   4   7   2  418.21    5.03
   4   7   3  257.25    3.82
   4   7   3  258.91    3.78
   4   7   3  268.12    3.94
  -4  -7  -3  260.76    3.57
   4   7   3  271.08    3.81
   4   7   3  256.42    3.67
  -4  -7  -3  260.39    3.68
  -4  -7  -3  268.04    3.84
  -4  -7  -3  263.75    3.62
   4   7   4    9.46    0.75
   4   7   4    7.89    0.72
   4   7   4    7.48    0.67
  -4  -7  -4    8.33    0.71
  -4  -7  -4    8.58    0.67
   4   7   4    9.20    0.73
  -4  -7  -4    8.54    0.74
  -4  -7  -4    8.13    0.68
   4   7   5  435.34    5.15
   4   7   5  434.95    5.23
   4   7   5  445.91    5.17
  -4  -7  -5  448.29    5.14
  -4  -7  -5  434.13    4.98
  -4  -7  -5  445.92    5.04
  -4  -7  -5  439.40    5.05
   4   7   5  444.95    5.16
   4   7   6  159.26    2.95
   4   7   6  150.80    2.86
  -4  -7  -6  159.09    2.85
  -4  -7  -6  150.40    2.62
  -4  -7  -6  154.10    2.77
  -4  -7  -6  153.20    2.68
  -4  -7  -6  157.93    2.87
   4   7   6  157.99    2.85
   4   7   6  154.35    2.52
   4   7   7   58.99    1.78
  -4  -7  -7   59.19    1.72
  -4  -7  -7   55.91    1.59
  -4  -7  -7   56.38    1.67
  -4  -7  -7   54.34    1.52
  -4  -7  -7   56.97    1.70
   4   7   7   55.51    1.49
  -4  -7  -8  768.63    6.69
   4   7   8  802.26    7.55
   4   7   8  802.78    7.50
  -4  -7  -8  807.15    7.25
  -4  -7  -8  757.97    7.05
  -4  -7  -8  815.34    7.43
   4   7   8  746.50    6.77
  -4  -7  -9   63.37    1.57
   4   7   9   65.14    1.84
   4   7   9   63.08    1.73
  -4  -7  -9   64.79    1.70
  -4  -7  -9   63.31    1.68
  -4  -7  -9   65.82    1.76
  -4  -7 -10    0.12    0.27
  -4  -7 -10    0.29    0.32
   4   7  10    0.02    0.45
   4   7  10    0.68    0.33
   4   7  10    0.35    0.32
  -4  -7 -10   -0.15    0.40
   4   7  10    0.22    0.36
  -4  -7 -10    0.18    0.32
  -4  -7 -10   -0.19    0.38
  -4  -7 -11   29.75    0.92
  -4  -7 -11   29.39    0.99
   4   7  11   30.87    1.20
   4   7  11   30.06    0.96
   4   7  11   28.93    1.06
  -4  -7 -11   31.00    0.99
  -4  -7 -12    0.06    0.22
  -4  -7 -12    0.17    0.27
   4   7  12    0.17    0.34
   4   7  12    0.07    0.35
   4   7  12   -0.17    0.28
   4   7  12    0.25    0.26
  -4  -7 -13    7.03    0.39
   4   7  13    7.26    0.53
   4   7  13    7.82    0.52
   4   7  13    7.64    0.39
   4   8  -8    0.15    0.25
  -4  -8   8   -0.02    0.28
   4   8  -7    5.22    0.36
  -4  -8   7    7.84    0.50
   4   8  -7    7.42    0.50
   4   8  -7    6.30    0.44
   4   8  -7    7.19    0.47
  -4  -8   7    7.27    0.44
  -4  -8   7    7.19    0.46
  -4  -8   7    7.74    0.52
   4   8  -7    5.91    0.40
  -4  -8   6   24.29    0.91
   4   8  -6   23.88    0.89
   4   8  -6   22.51    0.86
   4   8  -6   24.55    0.87
  -4  -8   6   24.73    0.90
  -4  -8   6   22.82    0.85
  -4  -8   6   25.96    0.94
   4   8  -6   20.98    0.79
  -4  -8   5   53.55    1.45
   4   8  -5   54.24    1.44
   4   8  -5   51.47    1.41
   4   8  -5   50.78    1.34
  -4  -8   5   55.64    1.47
  -4  -8   5   51.81    1.38
  -4  -8   5   56.41    1.49
   4   8  -5   49.55    1.33
  -4  -8   4   10.96    0.77
   4   8  -4   11.55    0.77
   4   8  -4   10.74    0.76
   4   8  -4   10.96    0.72
  -4  -8   4   11.66    0.79
  -4  -8   4   10.16    0.69
  -4  -8   4   10.87    0.74
  -4  -8   4   12.42    0.81
   4   8  -4   10.98    0.72
   4   8  -3    3.52    0.56
   4   8  -3    2.79    0.51
  -4  -8   3    2.64    0.50
   4   8  -3    2.90    0.49
  -4  -8   3    3.38    0.59
  -4  -8   3    3.23    0.54
  -4  -8   3    3.24    0.57
  -4  -8   3    2.86    0.44
   4   8  -3    3.24    0.50
  -4  -8   2   40.44    1.40
   4   8  -2   40.44    1.43
   4   8  -2   40.13    1.45
  -4  -8   2   41.17    1.47
  -4  -8   2   41.20    1.43
  -4  -8   2   42.19    1.45
  -4  -8   2   41.46    1.35
   4   8  -2   37.29    1.28
   4   8  -2   41.10    1.40
   4   8  -1   75.97    1.89
   4   8  -1   76.92    1.95
  -4  -8   1   71.51    1.86
   4   8  -1   78.44    2.02
  -4  -8   1   75.02    1.98
  -4  -8   1   76.45    1.97
  -4  -8   1   74.26    1.97
   4   8  -1   71.20    1.79
  -4  -8   1   75.85    1.90
   4   8  -1   77.93    1.95
   4   8   0   24.20    1.09
   4   8   0   23.08    1.09
  -4  -8   0   22.77    1.05
   4   8   0   24.39    1.16
  -4  -8   0   25.42    1.17
  -4  -8   0   23.38    1.15
   4   8   0   23.15    1.06
  -4  -8   0   23.71    1.11
   4   8   0   25.19    1.13
   4   8   1  106.35    2.30
   4   8   1  106.05    2.28
  -4  -8  -1  100.18    2.13
   4   8   1  107.28    2.38
  -4  -8  -1  106.40    2.31
   4   8   1  107.29    2.25
   4   8   1  104.75    2.21
  -4  -8  -1  105.23    2.34
   4   8   1  105.94    2.32
  -4  -8  -1  102.88    2.30
   4   8   2  149.66    2.77
   4   8   2  155.15    2.80
   4   8   2  153.63    2.87
  -4  -8  -2  150.10    2.74
   4   8   2  147.93    2.74
   4   8   2  149.22    2.70
  -4  -8  -2  151.75    2.61
  -4  -8  -2  156.02    2.87
   4   8   3  226.38    3.41
   4   8   3  227.62    3.48
   4   8   3  228.69    3.55
  -4  -8  -3  225.57    3.32
   4   8   3  223.33    3.37
   4   8   3  226.18    3.46
   4   8   3  219.14    3.03
  -4  -8  -3  221.08    3.30
  -4  -8  -3  232.13    3.56
  -4  -8  -3  226.27    3.27
   4   8   4  397.61    4.81
   4   8   4  406.67    4.89
   4   8   4  406.30    4.77
   4   8   4  405.06    4.81
   4   8   4  387.69    4.23
  -4  -8  -4  401.21    4.72
  -4  -8  -4  407.31    4.85
  -4  -8  -4  388.92    4.60
   4   8   4  403.33    4.26
   4   8   5  184.45    3.11
   4   8   5  181.54    3.08
   4   8   5  185.95    3.09
   4   8   5  180.18    2.67
  -4  -8  -5  185.37    3.05
  -4  -8  -5  184.46    3.04
  -4  -8  -5  177.99    2.99
   4   8   5  184.96    2.70
   4   8   6    1.10    0.46
   4   8   6    1.13    0.42
  -4  -8  -6    1.37    0.46
  -4  -8  -6    1.00    0.41
  -4  -8  -6    0.87    0.38
   4   8   6    0.98    0.33
   4   8   7   50.57    1.58
  -4  -8  -7   52.02    1.57
  -4  -8  -7   48.27    1.36
  -4  -8  -7   49.17    1.42
  -4  -8  -7   51.36    1.58
   4   8   7   48.22    1.34
   4   8   8  211.47    3.24
  -4  -8  -8  218.10    3.22
  -4  -8  -8  208.28    3.17
   4   8   9    0.95    0.44
  -4  -8  -9    0.57    0.38
  -4  -8 -10   30.24    0.89
   4   8  10   33.28    1.18
   4   8  10   31.77    0.96
  -4  -8 -10   33.93    1.09
   4   8  10   32.18    1.04
   4   8  11  104.50    1.92
   4   8  11  100.22    1.57
  -4  -8 -11  104.03    1.70
   4   8  12   29.36    0.90
   4   8  12   27.16    0.67
   4   8  12   29.93    0.87
  -4  -8 -12   27.02    0.67
   4   8  13    7.83    0.45
  -4  -8 -13    9.05    0.40
  -4  -9   6    0.81    0.29
   4   9  -6    1.16    0.27
   4   9  -6    1.01    0.26
  -4  -9   6    0.98    0.28
   4   9  -5   93.48    1.49
  -4  -9   5   91.54    1.55
   4   9  -5   92.33    1.52
  -4  -9   5   95.28    1.55
  -4  -9   5   89.81    1.49
   4   9  -4    1.07    0.32
  -4  -9   4    1.75    0.39
   4   9  -4    1.44    0.35
   4   9  -4    1.42    0.33
  -4  -9   4    1.30    0.38
  -4  -9   4    1.31    0.36
   4   9  -4    1.10    0.27
   4   9  -4    1.51    0.32
   4   9  -3    0.13    0.29
   4   9  -3    0.05    0.32
  -4  -9   3    0.31    0.36
   4   9  -3    0.34    0.30
  -4  -9   3    0.30    0.36
  -4  -9   3    0.41    0.36
   4   9  -3    0.15    0.26
   4   9  -3    0.37    0.30
   4   9  -2   80.91    1.73
   4   9  -2   83.39    1.76
  -4  -9   2   81.80    1.79
   4   9  -2   85.95    1.85
  -4  -9   2   86.16    1.90
   4   9  -2   77.54    1.65
  -4  -9   2   85.94    1.69
  -4  -9   2   85.22    1.84
   4   9  -2   87.13    1.81
   4   9  -1   54.69    1.47
   4   9  -1   55.82    1.48
  -4  -9   1   54.84    1.48
   4   9  -1   55.91    1.55
  -4  -9   1   56.95    1.59
   4   9  -1   52.49    1.42
   4   9  -1   53.78    1.41
  -4  -9   1   56.09    1.47
  -4  -9   1   55.45    1.51
   4   9  -1   56.34    1.51
   4   9   0   10.97    0.71
   4   9   0   11.28    0.72
  -4  -9   0   10.56    0.70
   4   9   0   11.44    0.76
  -4  -9   0   11.93    0.80
   4   9   0   10.78    0.72
   4   9   0   10.79    0.69
  -4  -9   0   10.76    0.73
   4   9   0   11.37    0.74
   4   9   1    1.73    0.43
  -4  -9  -1    1.79    0.39
   4   9   1    2.12    0.44
   4   9   1    2.04    0.40
  -4  -9  -1    2.60    0.49
   4   9   1    2.02    0.42
   4   9   1    2.00    0.41
  -4  -9  -1    2.66    0.49
   4   9   2   14.33    0.78
   4   9   2   14.82    0.84
   4   9   2   15.11    0.87
  -4  -9  -2   15.16    0.86
   4   9   2   14.95    0.84
   4   9   2   14.95    0.83
   4   9   2   13.40    0.72
  -4  -9  -2   14.88    0.88
   4   9   3   43.67    1.38
   4   9   3   43.48    1.38
  -4  -9  -3   41.91    1.31
   4   9   3   41.73    1.37
  -4  -9  -3   44.02    1.30
   4   9   3   40.92    1.18
  -4  -9  -3   45.54    1.47
   4   9   3   43.57    1.38
   4   9   3   42.64    1.17
   4   9   4  250.15    3.48
   4   9   4  251.53    3.43
  -4  -9  -4  237.03    3.11
   4   9   4  240.64    3.03
  -4  -9  -4  246.70    3.34
  -4  -9  -4  252.15    3.53
   4   9   4  247.37    3.01
   4   9   4  259.90    3.52
   4   9   5    0.69    0.40
   4   9   5    0.75    0.40
   4   9   5    1.54    0.34
  -4  -9  -5    0.51    0.37
  -4  -9  -5    0.79    0.43
   4   9   5    0.20    0.29
   4   9   6   68.36    1.69
  -4  -9  -6   67.34    1.67
  -4  -9  -6   66.67    1.64
   4   9   6   66.18    1.45
   4   9   7    6.19    0.60
  -4  -9  -7    6.84    0.62
  -4  -9  -7    5.57    0.52
   4   9   7    5.39    0.48
   4   9   8    4.75    0.53
  -4  -9  -8    4.91    0.55
  -4  -9  -8    4.24    0.41
   4   9   8    4.18    0.42
   4   9   9    2.87    0.43
  -4  -9  -9    2.40    0.42
   4   9  10  102.91    1.75
  -4  -9 -10  106.59    1.71
   4   9  11  154.21    1.95
   4   9  11  155.60    1.92
  -4  -9 -11  156.39    1.84
   4  10  -3   69.63    1.20
  -4 -10   3   71.60    1.27
   4  10  -2    5.55    0.38
   4  10  -2    6.06    0.45
   4  10  -2    6.26    0.45
  -4 -10   2    6.79    0.51
   4  10  -2    5.26    0.39
   4  10  -2    5.14    0.38
  -4 -10   2    6.17    0.38
   4  10  -1    0.17    0.27
   4  10  -1    0.30    0.26
   4  10  -1   -0.01    0.21
  -4 -10   1    0.21    0.31
   4  10  -1    0.20    0.25
   4  10  -1   -0.06    0.23
  -4 -10   1   -0.05    0.24
   4  10   0   39.02    1.09
   4  10   0   38.51    1.08
  -4 -10   0   39.35    1.13
   4  10   0   37.85    1.04
   4  10   0   37.43    1.03
  -4 -10   0   39.87    1.08
   4  10   1   69.56    1.49
   4  10   1   66.38    1.44
  -4 -10  -1   65.95    1.48
   4  10   1   63.72    1.41
   4  10   1   63.89    1.40
   4  10   1   59.67    1.22
  -4 -10  -1   68.45    1.51
   4  10   2   56.02    1.37
   4  10   2   55.60    1.33
   4  10   2   56.16    1.34
   4  10   2   54.89    1.34
   4  10   2   50.34    1.14
  -4 -10  -2   56.26    1.42
   4  10   2   54.10    1.10
   4  10   3    6.72    0.56
   4  10   3    5.87    0.48
   4  10   3    6.52    0.54
   4  10   3    5.54    0.42
  -4 -10  -3    6.10    0.57
   4  10   3    5.47    0.41
   4  10   4  110.24    1.96
   4  10   4  108.69    1.93
  -4 -10  -4  108.73    1.77
  -4 -10  -4  114.63    2.05
   4  10   4  108.17    1.65
   4  10   5    2.33    0.42
  -4 -10  -5    2.05    0.38
  -4 -10  -5    2.03    0.43
   4  10   5    1.95    0.32
   4  10   6  187.09    2.51
  -4 -10  -6  181.83    2.46
  -4 -10  -6  188.20    2.50
   4  10   6  180.10    2.17
   4  10   7   13.52    0.66
  -4 -10  -7   13.69    0.66
  -4 -10  -7   12.70    0.61
   4  10   7   12.89    0.54
   4  10   8   21.24    0.76
  -4 -10  -8   20.71    0.76
   4  10   9    4.54    0.39
  -4 -10  -9    4.87    0.43
   4  10  10    0.96    0.27
  -4 -10 -10    1.51    0.28
   4  11   0   -0.12    0.23
  -4 -11   0    0.15    0.24
   4  11   1    2.74    0.33
   4  11   1    2.74    0.31
  -4 -11  -1    2.53    0.31
  -4 -11  -1    2.85    0.34
  -4 -11  -1    2.59    0.30
   4  11   2   67.72    1.17
   4  11   2   64.81    1.11
  -4 -11  -2   66.70    1.18
  -4 -11  -2   66.95    1.14
   4  11   3   92.34    1.40
  -4 -11  -3   94.85    1.47
  -4 -11  -3   92.62    1.37
   4  11   4   29.61    0.79
  -4 -11  -4   30.33    0.84
  -4 -11  -4   29.46    0.75
   4  11   5   37.40    0.85
  -4 -11  -5   35.27    0.87
  -4 -11  -5   35.00    0.75
   4  11   6   18.03    0.58
  -4 -11  -6   17.50    0.58
   5  -9  -6   11.38    0.42
   5  -9  -5   18.84    0.56
   5  -9  -5   16.94    0.49
   5  -9  -4  150.36    1.52
   5  -9  -4  157.07    1.60
   5  -9  -3   41.11    0.85
   5  -9  -3   34.32    0.71
   5  -9  -2    5.66    0.62
   5  -9  -1  231.71    1.98
   5  -9  -1  191.82    1.96
   5  -9   0    5.89    0.55
  -5   8   9   22.20    0.39
  -5   8   9    4.19    0.37
   5  -8  -8   52.65    0.71
   5  -8  -8   13.90    0.49
   5  -8  -7   -0.21    0.21
   5  -8  -7    0.57    0.25
  -5   8   7    0.34    0.20
   5  -8  -6    7.76    0.42
   5  -8  -6    7.57    0.39
   5  -8  -5    9.57    0.55
   5  -8  -5   10.11    0.49
   5  -8  -5   10.23    0.53
   5  -8  -4   26.71    0.86
   5  -8  -4   27.79    0.80
   5  -8  -4   27.93    0.84
   5  -8  -3   11.88    0.70
   5  -8  -3   12.53    0.60
   5  -8  -3   11.35    0.51
   5  -8  -3   12.43    0.62
   5  -8  -2  264.62    2.87
   5  -8  -2  261.11    2.77
   5  -8  -1  163.50    2.16
   5  -8  -1  162.49    1.95
   5  -8  -1  165.86    2.11
   5  -8   0   20.55    0.88
   5  -8   0   43.09    1.11
   5  -8   0    7.90    0.50
   5  -8   0   44.01    1.51
   5  -8   0    6.91    0.42
   5  -8   1   32.29    1.20
   5  -8   1   39.00    1.43
   5  -8   2    2.36    0.85
   5  -7 -10    0.78    0.28
  -5   7  10    0.51    0.24
  -5   7   9    0.11    0.26
   5  -7  -9   -0.20    0.29
   5  -7  -8    5.93    0.44
  -5   7   8    4.65    0.41
   5  -7  -7    0.90    0.27
   5  -7  -7    1.82    0.36
  -5   7   7    1.29    0.32
   5  -7  -6    5.61    0.42
   5  -7  -6    6.32    0.47
  -5   7   6    5.65    0.50
   5  -7  -5   48.29    1.11
   5  -7  -5   47.33    1.07
  -5   7   5   45.67    1.14
   5  -7  -4    4.85    0.48
  -5   7   4    4.51    0.45
   5  -7  -3    3.81    0.50
   5  -7  -3    3.45    1.04
   5  -7  -2   49.54    1.37
   5  -7  -2   48.90    1.25
   5  -7  -2   49.15    1.33
   5  -7  -1  550.74    4.98
   5  -7  -1  489.53    4.24
   5  -7  -1  502.54    4.55
   5  -7  -1  539.62    4.84
   5  -7  -1  554.64    4.92
   5  -7  -1  495.58    4.75
   5  -7   0   31.74    1.08
   5  -7   0   44.52    1.22
   5  -7   0   33.33    1.03
   5  -7   0   34.90    1.09
   5  -7   0   40.79    1.78
   5  -7   0   33.08    1.05
   5  -7   1   13.73    0.65
   5  -7   1   14.53    0.73
   5  -7   1   14.04    0.71
   5  -7   2   18.56    0.70
   5  -7   2   19.32    0.78
   5  -7   3   10.84    0.61
   5  -7   3   11.01    0.60
   5  -7   3   11.50    0.61
   5  -7   4    0.37    0.29
   5  -7   4    0.09    0.32
   5  -7   4    0.51    0.30
   5  -7   5    9.17    0.51
   5  -7   5   10.81    0.57
   5  -6 -11   23.87    0.67
   5  -6 -11   27.38    0.64
  -5   6  11   25.97    0.70
   5  -6 -11   26.91    0.77
  -5   6  11   26.92    0.68
  -5   6  11   23.19    0.55
   5  -6 -10   14.88    0.72
   5  -6 -10   13.18    0.61
  -5   6  10   14.99    0.63
   5  -6 -10   14.77    0.69
   5  -6  -9    9.16    0.65
   5  -6  -9    8.05    0.56
   5  -6  -9   10.17    0.58
  -5   6   9    8.09    0.56
  -5   6   9    6.48    0.59
   5  -6  -9    8.79    0.62
  -5   6   9    8.70    0.56
   5  -6  -8  272.89    3.46
   5  -6  -8  238.23    3.12
   5  -6  -8  291.52    3.04
  -5   6   8  266.47    3.12
   5  -6  -8  254.40    3.29
  -5   6   8  269.12    3.06
   5  -6  -7   78.41    1.85
   5  -6  -7   74.47    1.69
  -5   6   7   77.24    1.63
  -5   6   7   79.65    1.61
   5  -6  -7   74.40    1.75
   5  -6  -6   43.93    1.43
   5  -6  -6   45.92    1.19
   5  -6  -6   42.81    1.04
   5  -6  -6   42.24    1.30
  -5   6   6   42.90    1.20
   5  -6  -6   42.68    1.35
   5  -6  -5   47.92    1.16
   5  -6  -5   48.48    1.23
  -5   6   5   45.85    1.24
   5  -6  -4   24.73    0.89
   5  -6  -4   25.75    0.89
  -5   6   4   24.71    0.91
   5  -6  -3    3.21    0.48
  -5   6   3    1.88    0.84
  -5   6   2   22.44    1.87
   5  -6  -2   13.63    1.21
   5  -6  -1  223.17    3.01
   5  -6  -1  223.70    2.61
   5  -6  -1  250.56    3.22
   5  -6  -1  214.48    2.85
   5  -6  -1  222.22    3.01
   5  -6  -1  189.52    2.86
   5  -6   0  134.10    2.28
   5  -6   0  159.08    2.09
   5  -6   0  141.47    2.39
   5  -6   0  126.96    2.08
   5  -6   0  138.04    2.31
   5  -6   0  106.83    2.28
   5  -6   1   40.19    1.23
   5  -6   1   42.78    1.34
   5  -6   1   40.94    1.25
   5  -6   1   41.17    1.27
   5  -6   1   40.70    1.20
   5  -6   1   38.65    1.18
   5  -6   2  253.17    3.19
   5  -6   2  257.80    3.28
   5  -6   2  282.17    3.13
   5  -6   2  262.50    3.23
   5  -6   2  265.16    3.28
   5  -6   2  244.00    3.15
   5  -6   2  271.57    3.02
   5  -6   2  238.83    3.19
   5  -6   2  257.69    3.29
   5  -6   3   10.74    0.68
   5  -6   3   10.14    0.62
   5  -6   3   10.32    0.66
   5  -6   3   10.78    0.60
   5  -6   3   10.40    0.68
   5  -6   3   10.46    0.69
   5  -6   4   54.17    1.32
   5  -6   4   48.64    1.31
   5  -6   4   52.83    1.22
   5  -6   4   52.93    1.39
   5  -6   4   53.70    1.36
   5  -6   5   33.14    0.95
   5  -6   5   30.93    0.91
   5  -6   5   32.01    1.08
   5  -6   5   32.15    1.03
   5  -6   6   16.17    0.72
   5  -6   6   19.00    0.80
   5  -6   7    0.15    0.28
   5  -6   7    0.33    0.33
   5  -6   8   41.42    0.87
   5  -5 -12   29.60    0.78
  -5   5  12   29.71    0.71
  -5   5  12   25.36    0.61
  -5   5  12   24.25    0.56
   5  -5 -12   30.64    0.80
   5  -5 -12   20.78    0.51
  -5   5  12   28.28    0.65
   5  -5 -11    0.54    0.34
   5  -5 -11    0.43    0.31
  -5   5  11    0.54    0.29
   5  -5 -11    1.09    0.36
   5  -5 -11    0.64    0.27
  -5   5  11    0.60    0.32
   5  -5 -10   23.76    0.96
   5  -5 -10   22.31    0.92
   5  -5 -10   25.61    0.81
  -5   5  10   22.65    0.84
  -5   5  10   20.06    0.78
   5  -5 -10   25.01    0.97
   5  -5  -9    0.44    0.45
   5  -5  -9    0.42    0.36
   5  -5  -9    0.16    0.40
  -5   5   9    0.17    0.32
  -5   5   9    0.05    0.49
  -5   5   9    1.12    0.40
   5  -5  -9    0.71    0.42
   5  -5  -8   16.28    0.93
   5  -5  -8   15.01    0.87
   5  -5  -8   16.34    0.79
  -5   5   8   14.60    0.80
   5  -5  -8   16.25    0.92
   5  -5  -7    0.87    0.49
   5  -5  -7    0.63    0.42
   5  -5  -7    0.88    0.41
  -5   5   7    0.90    0.39
  -5   5   7    2.45    0.55
   5  -5  -7    0.65    0.42
   5  -5  -6   10.75    0.84
   5  -5  -6   11.16    0.81
  -5   5   6    7.91    1.29
  -5   5   6   11.34    1.48
   5  -5  -6   10.87    0.69
  -5   5   6   10.70    0.70
   5  -5  -6   10.81    0.81
   5  -5  -5   -0.71    0.35
   5  -5  -5   -0.03    0.43
   5  -5  -5    0.27    0.37
  -5   5   5    1.00    0.77
  -5   5   5    1.41    0.85
   5  -5  -5    0.46    0.36
  -5   5   5   -0.18    0.37
   5  -5  -5    0.64    0.41
   5  -5  -4   13.10    0.67
   5  -5  -4   13.15    0.86
  -5   5   4    9.49    1.38
  -5   5   4   13.88    1.59
   5  -5  -4   12.68    0.71
  -5   5   4   12.63    0.70
   5  -5  -4   12.97    0.87
   5  -5  -3   65.67    1.47
  -5   5   3   66.34    3.13
   5  -5  -3   61.26    1.43
   5  -5  -3   64.35    1.61
   5  -5  -2   76.34    1.63
  -5   5   2   56.10    2.90
  -5   5   2   72.81    3.21
   5  -5  -2   63.63    1.61
   5  -5  -1   10.66    0.69
  -5   5   1    7.31    1.14
  -5   5   1    8.28    1.21
   5  -5   0   15.85    0.80
   5  -5   0   17.47    0.92
   5  -5   0   15.12    0.79
   5  -5   0   16.05    0.83
   5  -5   1   16.25    0.82
   5  -5   1   16.73    0.90
   5  -5   1   19.31    0.90
   5  -5   1   17.19    0.88
   5  -5   1   16.02    0.84
   5  -5   2  237.35    3.11
   5  -5   2  245.40    3.26
   5  -5   2  251.36    3.04
   5  -5   2  241.96    3.32
   5  -5   2  254.44    3.31
   5  -5   2  243.42    3.20
   5  -5   2  232.38    3.31
   5  -5   3    9.23    0.71
   5  -5   3   10.67    0.72
   5  -5   3   10.27    0.74
   5  -5   3    9.56    0.69
   5  -5   3   10.28    0.76
   5  -5   3   10.07    0.75
   5  -5   4   90.99    1.83
   5  -5   4   92.48    1.90
   5  -5   4   86.37    1.89
   5  -5   4   94.16    1.80
   5  -5   4   94.80    2.06
   5  -5   4   92.62    1.96
   5  -5   5    1.52    0.38
   5  -5   5    1.57    0.41
   5  -5   5    1.92    0.41
   5  -5   5    3.24    0.57
   5  -5   5    2.35    0.51
   5  -5   6   25.89    0.85
   5  -5   6   22.01    0.93
   5  -5   6   24.06    0.91
   5  -5   6   27.43    1.08
   5  -5   6   24.69    0.99
   5  -5   7  136.86    2.00
   5  -5   7  132.30    2.15
   5  -5   8   10.31    0.60
   5  -5   8   10.63    0.61
   5  -5   9   14.02    0.59
   5  -5   9   13.90    0.58
   5  -4 -13    0.37    0.26
  -5   4  13    0.07    0.22
   5  -4 -12   16.62    0.69
  -5   4  12   15.70    0.62
  -5   4  12   15.12    0.55
   5  -4 -12   16.58    0.66
  -5   4  12   16.16    0.57
   5  -4 -11   20.51    0.81
   5  -4 -11   21.12    0.87
   5  -4 -11   21.74    0.67
  -5   4  11   19.54    0.78
   5  -4 -11   21.52    0.87
  -5   4  11   20.85    0.75
   5  -4 -10   14.69    0.81
   5  -4 -10   14.43    0.83
   5  -4 -10   15.75    0.70
  -5   4  10   13.67    0.75
  -5   4  10   13.35    0.69
   5  -4 -10   15.31    0.85
   5  -4  -9  167.35    2.77
   5  -4  -9  143.43    1.87
   5  -4  -9  165.97    2.82
   5  -4  -9  186.16    2.43
  -5   4   9  166.82    2.58
  -5   4   9  153.94    2.43
  -5   4   9  148.83    2.42
   5  -4  -9  175.52    2.87
   5  -4  -9  147.48    1.95
   5  -4  -8    8.56    0.76
   5  -4  -8    6.99    0.50
   5  -4  -8    8.61    0.74
  -5   4   8    6.57    1.07
   5  -4  -8   10.07    0.66
  -5   4   8    8.20    0.67
  -5   4   8   10.28    0.81
   5  -4  -8    8.58    0.74
   5  -4  -7   73.90    1.94
   5  -4  -7   71.48    1.93
   5  -4  -7   74.29    1.63
  -5   4   7   67.79    1.71
  -5   4   7   73.54    1.69
   5  -4  -7   73.36    1.96
   5  -4  -6   70.61    1.91
   5  -4  -6   69.81    1.94
   5  -4  -6   73.76    1.63
  -5   4   6   70.95    1.70
  -5   4   6   68.09    1.60
   5  -4  -6   71.74    1.94
   5  -4  -5  482.18    5.48
   5  -4  -5  473.25    5.50
   5  -4  -5  465.79    4.65
  -5   4   5  461.86    4.63
   5  -4  -5  480.45    5.46
   5  -4  -4    7.88    0.73
   5  -4  -4    7.46    0.71
  -5   4   4    6.75    1.23
  -5   4   4    8.55    1.31
   5  -4  -4    7.58    0.60
  -5   4   4    7.62    0.59
   5  -4  -4    7.91    0.72
   5  -4  -3   70.48    1.46
   5  -4  -3   74.19    1.96
  -5   4   3   62.26    3.09
   5  -4  -3   69.19    1.53
   5  -4  -3   73.09    1.91
  -5   4   3   61.79    2.88
   5  -4  -2  216.28    2.61
   5  -4  -2  173.12    2.46
   5  -4  -2  177.08    3.08
  -5   4   2  151.67    4.72
  -5   4   2  181.99    5.03
  -5   4   2  168.88    4.83
   5  -4  -2  202.46    2.68
   5  -4  -1   42.55    1.47
   5  -4  -1   23.73    0.91
   5  -4  -1   34.68    2.69
  -5   4   1   21.23    1.82
  -5   4   1   24.29    1.85
  -5   4   1   29.40    2.05
   5  -4  -1   50.64    1.49
   5  -4   0   21.45    0.88
   5  -4   0   15.74    1.82
  -5   4   0   17.94    1.73
  -5   4   0   19.06    1.62
  -5   4   0   19.33    1.68
   5  -4   1  255.37    3.18
   5  -4   1  270.80    2.86
   5  -4   1  265.81    3.37
   5  -4   1  237.53    3.01
  -5   4  -1  243.27    6.03
   5  -4   1  261.87    3.32
   5  -4   2  119.02    2.06
   5  -4   2  123.38    2.37
   5  -4   2  118.95    2.19
   5  -4   2  129.13    2.05
   5  -4   2  126.34    2.23
   5  -4   3  289.23    3.44
   5  -4   3  309.34    4.00
   5  -4   3  302.89    3.64
   5  -4   3  326.04    3.51
   5  -4   3  285.02    3.81
   5  -4   3  305.74    3.83
   5  -4   3  317.19    3.77
   5  -4   3  295.59    3.70
   5  -4   4   89.73    1.83
   5  -4   4   90.00    2.07
   5  -4   4   93.12    1.99
   5  -4   4   94.55    1.96
   5  -4   4   88.94    1.97
   5  -4   4   92.32    2.08
   5  -4   4   95.24    2.01
   5  -4   5  331.16    3.62
   5  -4   5  336.49    3.94
   5  -4   5  313.58    3.94
   5  -4   5  321.12    3.81
   5  -4   5  353.30    3.86
   5  -4   5  340.20    4.20
   5  -4   5  334.83    3.96
   5  -4   6   57.07    1.45
   5  -4   6   57.69    1.61
   5  -4   6   55.45    1.51
   5  -4   7   54.22    1.40
   5  -4   7   53.18    1.43
   5  -4   8   42.42    1.25
   5  -4   8   42.77    1.21
   5  -4   9   50.09    1.20
   5  -4   9   50.60    1.24
   5  -4   9   51.77    1.21
   5  -4  10   -0.18    0.29
   5  -4  10    0.08    0.30
   5  -4  10    0.20    0.27
   5  -3 -13   29.71    0.77
  -5   3  13   28.13    0.71
   5  -3 -12   13.09    0.65
   5  -3 -12   11.53    0.43
  -5   3  12   12.51    0.60
  -5   3  12   12.00    0.53
   5  -3 -12   11.67    0.54
   5  -3 -12   12.65    0.60
  -5   3  12   12.45    0.55
   5  -3 -11   91.99    1.69
   5  -3 -11   98.84    1.90
  -5   3  11   95.70    1.73
  -5   3  11   89.89    1.65
  -5   3  11   81.59    1.37
   5  -3 -11   92.95    1.77
  -5   3  11   85.53    1.48
   5  -3 -11   96.90    1.82
   5  -3 -11   97.25    1.43
  -5   3  11   98.76    1.64
   5  -3 -10    3.05    0.46
   5  -3 -10    3.10    0.54
   5  -3 -10    3.19    0.45
   5  -3 -10    3.25    0.45
  -5   3  10    2.97    0.43
  -5   3  10    3.31    0.48
   5  -3 -10    3.48    0.51
  -5   3  10    3.35    0.51
   5  -3  -9    2.39    0.34
   5  -3  -9    2.66    0.49
   5  -3  -9    3.08    0.56
  -5   3   9    3.48    0.48
   5  -3  -9    3.16    0.50
  -5   3   9    2.60    0.48
   5  -3  -9    2.82    0.47
  -5   3   9    3.02    0.47
   5  -3  -9    3.00    0.36
   5  -3  -9    2.83    0.55
   5  -3  -8   13.49    0.89
   5  -3  -8   11.93    0.64
   5  -3  -8   13.63    0.91
  -5   3   8   10.52    1.28
   5  -3  -8   14.42    0.76
  -5   3   8   14.80    0.85
   5  -3  -8   13.87    0.88
  -5   3   8   12.82    0.83
  -5   3   8   14.03    0.84
   5  -3  -8   14.02    0.91
   5  -3  -7   33.98    1.33
   5  -3  -7   34.51    1.37
   5  -3  -7   34.38    1.13
  -5   3   7   33.72    1.20
   5  -3  -7   33.19    1.34
  -5   3   7   34.80    1.22
   5  -3  -7   34.16    1.35
   5  -3  -6   27.71    1.21
   5  -3  -6   26.12    1.23
  -5   3   6   25.99    2.03
   5  -3  -6   26.47    1.00
  -5   3   6   26.66    1.06
   5  -3  -6   27.18    1.22
  -5   3   6   26.93    1.05
   5  -3  -6   27.71    1.22
   5  -3  -5   88.03    2.15
   5  -3  -5   86.12    2.14
  -5   3   5   82.23    3.50
   5  -3  -5   83.64    1.73
   5  -3  -5   87.27    2.14
  -5   3   5   83.52    1.74
   5  -3  -5   86.13    2.11
   5  -3  -4  502.50    5.51
   5  -3  -4  449.04    9.88
   5  -3  -4  501.09    5.60
  -5   3   4  464.43    8.42
  -5   3   4  513.38    8.78
   5  -3  -4  484.52    4.65
   5  -3  -4  509.20    5.56
  -5   3   4  476.37    4.59
   5  -3  -4  492.23    5.50
  -5   3   4  416.21    7.65
   5  -3  -3    2.03    0.48
   5  -3  -3   -0.38    0.74
   5  -3  -3    0.74    0.38
  -5   3   3   -0.31    0.87
  -5   3   3    0.36    0.80
   5  -3  -3   -0.02    0.33
  -5   3   3    0.09    0.55
   5  -3  -3    0.67    0.42
   5  -3  -2   73.69    1.46
   5  -3  -2   83.77    2.09
   5  -3  -2   78.30    3.95
  -5   3   2   74.51    3.23
  -5   3   2   82.65    3.32
   5  -3  -2   77.92    1.55
   5  -3  -2   86.26    2.10
   5  -3  -2   80.41    2.00
  -5   3   2   76.55    3.13
   5  -3  -1  126.30    1.99
   5  -3  -1  119.78    4.82
  -5   3   1  124.39    4.09
  -5   3   1  135.39    4.10
   5  -3  -1  141.11    2.73
  -5   3   1  127.35    4.09
   5  -3   0    1.27    0.34
   5  -3   0    1.15    0.33
   5  -3   0    1.17    0.65
  -5   3   0    1.28    0.65
  -5   3   0    1.46    0.72
  -5   3   0    1.68    0.71
   5  -3   0    1.32    0.37
  -5   3   0    1.90    0.63
   5  -3   1   23.81    1.05
   5  -3   1   26.80    1.01
   5  -3   1   25.00    0.92
   5  -3   1   20.45    1.96
  -5   3  -1   21.63    1.83
  -5   3  -1   21.18    1.65
   5  -3   1   23.27    1.14
  -5   3  -1   21.20    1.72
   5  -3   1   24.26    0.92
   5  -3   2    0.45    0.33
   5  -3   2    0.75    0.36
   5  -3   2   28.44    0.99
  -5   3  -2    0.49    0.52
  -5   3  -2    1.53    0.68
   5  -3   2    0.94    0.35
   5  -3   2   37.41    1.63
   5  -3   3  143.75    2.66
   5  -3   3  137.77    2.27
   5  -3   3  178.15    2.45
  -5   3  -3  133.82    4.27
   5  -3   3  132.69    2.50
  -5   3  -3  118.15    3.78
  -5   3  -3   64.61    3.07
   5  -3   3  139.48    2.45
   5  -3   3  145.49    2.37
   5  -3   3  188.91    2.70
   5  -3   4  175.40    3.03
   5  -3   4  177.26    2.56
  -5   3  -4  177.30    5.24
   5  -3   4  171.04    2.95
  -5   3  -4  166.19    4.94
   5  -3   4  179.87    2.81
   5  -3   4  180.05    2.70
   5  -3   4  169.15    2.75
   5  -3   4  179.30    2.77
   5  -3   5  262.96    3.34
   5  -3   5  319.41    4.19
  -5   3  -5  301.44    6.60
   5  -3   5  323.20    3.88
   5  -3   5  299.08    3.87
   5  -3   5  279.08    3.67
   5  -3   5  319.86    3.84
   5  -3   6   65.19    1.82
   5  -3   6   64.63    1.56
   5  -3   6   64.03    1.75
   5  -3   6   62.14    1.60
   5  -3   7   72.41    1.93
   5  -3   7   69.92    1.63
   5  -3   7   74.02    1.82
   5  -3   7   69.40    1.67
   5  -3   8   22.87    1.01
   5  -3   8   24.20    0.99
   5  -3   8   26.14    1.09
   5  -3   8   23.28    0.98
   5  -3   9   29.41    1.07
   5  -3   9   29.94    1.03
   5  -3   9   30.26    1.05
   5  -3  10   19.51    0.83
  -5   3 -10   18.88    0.66
   5  -3  10   20.51    0.82
   5  -3  10   18.52    0.73
   5  -3  11   50.18    1.10
   5  -3  11   52.46    1.09
   5  -2 -13    4.64    0.37
  -5   2  13    4.93    0.39
   5  -2 -13    4.67    0.36
   5  -2 -12    1.28    0.33
  -5   2  12    0.86    0.30
  -5   2  12    1.23    0.27
   5  -2 -12    1.09    0.31
   5  -2 -12    0.60    0.20
   5  -2 -12    1.21    0.28
   5  -2 -11   51.61    1.38
   5  -2 -11   52.25    1.04
  -5   2  11   49.69    1.29
  -5   2  11   51.35    1.23
  -5   2  11   44.35    1.02
   5  -2 -11   51.91    1.43
  -5   2  11   46.63    1.10
   5  -2 -11   49.98    1.27
  -5   2  11   50.99    1.22
   5  -2 -10   62.77    1.50
   5  -2 -10   67.06    1.72
   5  -2 -10   70.45    1.35
  -5   2  10   63.86    1.57
  -5   2  10   64.59    1.55
   5  -2 -10   65.94    1.76
  -5   2  10   63.29    1.42
   5  -2 -10   66.12    1.62
  -5   2  10   65.45    1.51
   5  -2  -9    0.15    0.38
   5  -2  -9    0.06    0.26
   5  -2  -9    0.10    0.35
   5  -2  -9    0.55    0.47
  -5   2   9    0.18    0.32
  -5   2   9    0.07    0.36
   5  -2  -9    0.27    0.37
  -5   2   9    0.13    0.37
   5  -2  -9    0.46    0.25
   5  -2  -9    0.50    0.40
  -5   2   9    1.16    0.48
   5  -2  -8    0.26    0.30
   5  -2  -8    0.99    0.43
   5  -2  -8   -0.27    0.43
  -5   2   8    1.00    0.41
  -5   2   8   -0.41    0.56
   5  -2  -8    0.16    0.37
  -5   2   8   -0.10    0.34
   5  -2  -8    0.53    0.38
  -5   2   8   -0.01    0.43
   5  -2  -8    0.60    0.31
   5  -2  -8    0.17    0.43
   5  -2  -7    2.57    0.42
   5  -2  -7    2.68    0.51
   5  -2  -7    2.45    0.53
  -5   2   7    1.78    0.46
  -5   2   7    1.09    0.73
   5  -2  -7    2.30    0.46
  -5   2   7    2.07    0.43
   5  -2  -7    2.27    0.47
  -5   2   7    2.23    0.52
  -5   2   7    2.09    0.51
   5  -2  -7    2.67    0.53
   5  -2  -6  165.59    2.91
   5  -2  -6  168.93    3.03
  -5   2   6  165.97    4.84
   5  -2  -6  172.36    2.50
  -5   2   6  164.25    2.64
   5  -2  -6  171.93    3.15
  -5   2   6  166.38    2.56
  -5   2   6  166.55    2.73
   5  -2  -6  169.39    2.97
   5  -2  -5   12.83    0.84
   5  -2  -5   13.23    1.75
   5  -2  -5   12.69    0.86
  -5   2   5   12.06    1.44
   5  -2  -5   12.67    0.71
   5  -2  -5   13.69    0.91
  -5   2   5   13.23    0.73
   5  -2  -5   13.48    0.89
   5  -2  -4   47.31    1.51
   5  -2  -4   43.69    2.95
   5  -2  -4   46.48    1.55
  -5   2   4   45.85    2.34
  -5   2   4   48.80    2.67
   5  -2  -4   46.44    1.24
   5  -2  -4   47.55    1.60
  -5   2   4   47.97    1.23
   5  -2  -4   48.56    1.54
   5  -2  -3   30.21    1.20
   5  -2  -3   24.18    2.22
   5  -2  -3   27.03    1.18
  -5   2   3   29.04    2.08
   5  -2  -3   26.61    0.92
   5  -2  -3   28.08    1.21
   5  -2  -3   29.73    1.21
   5  -2  -2    0.53    0.71
   5  -2  -2    1.10    0.40
  -5   2   2    0.56    0.73
  -5   2   2    0.11    0.48
   5  -2  -2    1.07    0.40
   5  -2  -1   12.06    1.58
  -5   2   1   12.80    1.40
  -5   2   1   13.20    1.35
   5  -2   0  138.87    4.90
  -5   2   0  145.71    4.53
  -5   2   0  143.82    4.16
  -5   2   0  134.74    4.15
   5  -2   1   25.45    1.07
   5  -2   1   31.40    0.96
   5  -2   1   24.06    2.05
  -5   2  -1   26.31    1.95
   5  -2   1   26.13    1.17
  -5   2  -1   23.31    1.68
  -5   2  -1   22.73    1.72
  -5   2  -1   18.54    1.58
   5  -2   1   24.75    0.88
   5  -2   2   72.67    1.83
   5  -2   2   81.18    1.67
   5  -2   2   89.10    1.59
   5  -2   2   63.41    3.25
  -5   2  -2   71.84    3.13
  -5   2  -2   69.11    2.72
   5  -2   2   68.99    1.96
  -5   2  -2   66.90    2.85
   5  -2   2   70.62    1.52
   5  -2   2  101.08    1.88
  -5   2  -3  153.59    4.16
   5  -2   3  150.79    2.74
   5  -2   3  152.97    2.29
   5  -2   3  177.96    2.33
   5  -2   3  137.36    5.93
  -5   2  -3  148.29    4.50
   5  -2   3  145.63    2.62
   5  -2   3  148.33    2.48
   5  -2   3  153.43    2.35
   5  -2   3  172.12    2.49
   5  -2   4  102.73    2.27
   5  -2   4   93.72    4.96
  -5   2  -4  100.89    3.63
  -5   2  -4   92.14    3.52
  -5   2  -4  105.37    4.35
   5  -2   4  102.00    2.24
  -5   2  -4   90.27    3.16
  -5   2  -4  100.39    3.82
   5  -2   4  103.04    2.05
   5  -2   4  103.31    1.94
   5  -2   4   88.07    1.90
   5  -2   5   67.61    1.86
  -5   2  -5   68.96    3.34
   5  -2   5   66.15    1.83
  -5   2  -5   63.54    3.03
   5  -2   5   66.62    1.65
   5  -2   5   62.05    1.65
   5  -2   5   66.37    1.62
  -5   2  -6   82.77    3.57
   5  -2   6   83.08    2.06
  -5   2  -6   76.32    3.33
   5  -2   6   82.09    1.85
   5  -2   6   79.15    1.78
   5  -2   7    3.39    0.57
  -5   2  -7    2.48    0.76
   5  -2   7    2.75    0.48
   5  -2   7    2.77    0.47
   5  -2   8   47.17    1.54
   5  -2   8   44.85    1.43
   5  -2   8   46.90    1.34
   5  -2   8   49.05    1.45
   5  -2   8   43.61    1.31
   5  -2   9   10.03    0.79
   5  -2   9    8.33    0.67
   5  -2   9    8.75    0.65
   5  -2   9    8.59    0.64
  -5   2 -10   21.77    0.85
   5  -2  10   21.61    0.84
   5  -2  10   21.62    0.94
   5  -2  10   21.83    0.84
   5  -2  11    0.48    0.36
   5  -2  11    0.13    0.25
  -5   2 -11    0.35    0.23
   5  -2  11    0.11    0.31
   5  -2  11    0.54    0.26
   5  -2  12    1.88    0.39
   5  -2  12    2.16    0.36
  -5   1  13   97.12    1.38
   5  -1 -13   96.25    1.48
   5  -1 -12    1.88    0.32
  -5   1  12    1.62    0.35
  -5   1  12    1.56    0.29
   5  -1 -12    1.75    0.37
   5  -1 -11   25.80    0.96
   5  -1 -11   24.17    0.70
  -5   1  11   25.20    0.95
  -5   1  11   25.22    0.90
   5  -1 -11   27.82    1.11
   5  -1 -11   24.81    0.85
  -5   1  11   26.80    0.91
  -5   1  11   26.93    0.88
   5  -1 -10    0.89    0.40
   5  -1 -10    0.64    0.29
  -5   1  10    0.81    0.40
  -5   1  10    0.36    0.38
  -5   1  10   -0.84    0.43
   5  -1 -10    1.15    0.45
  -5   1  10    0.49    0.32
   5  -1 -10    1.33    0.37
  -5   1  10    0.52    0.42
  -5   1  10    0.63    0.33
   5  -1  -9    0.97    0.28
   5  -1  -9    2.32    0.41
   5  -1  -9    1.58    0.46
   5  -1  -9    1.94    0.40
  -5   1   9    1.54    0.43
  -5   1   9    1.49    0.45
  -5   1   9    1.39    0.38
  -5   1   9    1.98    0.44
   5  -1  -9    1.24    0.30
   5  -1  -9    1.99    0.42
  -5   1   9    1.56    0.48
   5  -1  -8   25.02    1.07
   5  -1  -8   23.79    0.83
   5  -1  -8   25.42    1.18
  -5   1   8   24.38    0.98
   5  -1  -8   27.05    0.97
  -5   1   8   25.64    1.06
  -5   1   8   21.05    0.75
  -5   1   8   25.79    1.07
   5  -1  -8   24.78    1.08
   5  -1  -8   25.30    0.87
  -5   1   8   24.85    1.05
   5  -1  -7   55.29    1.60
   5  -1  -7   61.87    1.44
   5  -1  -7   52.66    1.28
   5  -1  -7   57.06    1.73
  -5   1   7   56.76    1.51
  -5   1   7   52.81    2.67
  -5   1   7   61.71    1.25
   5  -1  -7   59.94    1.89
  -5   1   7   61.85    1.61
   5  -1  -7   56.36    1.65
   5  -1  -7   53.19    1.33
  -5   1   7   58.02    1.58
  -5   1   7   56.29    1.52
   5  -1  -6   14.48    0.87
   5  -1  -6   11.54    0.66
   5  -1  -6   13.00    1.65
   5  -1  -6   10.65    1.35
   5  -1  -6   14.36    0.91
  -5   1   6   13.93    0.84
  -5   1   6   13.24    1.56
   5  -1  -6   14.00    0.73
  -5   1   6   13.00    0.75
   5  -1  -6   13.82    0.95
  -5   1   6   13.28    0.82
   5  -1  -6   13.75    0.88
   5  -1  -6   11.99    0.68
  -5   1   6   17.60    0.97
   5  -1  -5   72.13    1.82
   5  -1  -5   62.23    1.34
   5  -1  -5   69.21    3.60
   5  -1  -5   74.20    1.93
  -5   1   5   74.66    1.78
  -5   1   5   78.28    3.24
   5  -1  -5   79.94    1.63
  -5   1   5   56.04    1.05
   5  -1  -5   79.19    2.09
  -5   1   5   75.48    1.63
  -5   1   5   50.66    2.54
  -5   1   5   79.95    1.78
   5  -1  -5   72.56    1.88
   5  -1  -4  441.63    4.94
   5  -1  -4  436.08    9.11
   5  -1  -4  452.35    5.17
  -5   1   4  460.47    7.99
   5  -1  -4  460.88    4.35
   5  -1  -4  475.13    5.45
  -5   1   4  448.73    4.30
  -5   1   4  432.01    7.33
  -5   1   4  451.45    4.65
   5  -1  -4  442.54    5.00
   5  -1  -3   99.90    4.21
   5  -1  -3  102.31    2.23
  -5   1   3  125.78    4.03
  -5   1   3   89.25    3.34
   5  -1  -3  100.33    2.15
  -5   1   3  134.16    2.17
   5  -1  -2   17.04    1.81
  -5   1   2   19.95    1.73
  -5   1   2   16.02    1.42
  -5   1   2   19.28    0.83
   5  -1  -1  154.89    5.07
  -5   1   1  154.61    4.55
  -5   1   1  157.88    4.37
  -5   1   1  160.23    4.35
  -5   1   1  152.53    2.23
   5  -1   0  105.23    4.15
  -5   1   0  112.63    3.86
  -5   1   0  115.17    2.01
  -5   1   0  110.28    3.56
  -5   1   0  109.54    3.58
  -5   1   0  107.06    1.77
   5  -1   1   30.77    2.26
  -5   1  -1   36.64    2.25
  -5   1  -1   33.11    1.03
  -5   1  -1   32.86    1.95
  -5   1  -1   31.87    1.99
   5  -1   2   86.30    4.58
   5  -1   2   89.64    3.76
  -5   1  -2   95.81    3.60
  -5   1  -2   86.60    1.66
  -5   1  -2   87.86    3.08
   5  -1   3   19.56    0.97
   5  -1   3   15.69    2.05
   5  -1   3   18.59    1.74
  -5   1  -3   19.56    1.65
  -5   1  -3   18.68    1.71
   5  -1   3   18.36    1.02
  -5   1  -3   18.50    1.50
   5  -1   3   19.06    0.84
   5  -1   3   20.22    0.79
   5  -1   4  166.39    2.88
   5  -1   4  158.65    6.25
  -5   1  -4  170.47    4.75
   5  -1   4  156.80    3.17
  -5   1  -4  165.34    4.76
  -5   1  -4  167.59    4.25
  -5   1  -4  164.21    4.84
   5  -1   4  162.62    2.54
   5  -1   5  105.85    2.32
   5  -1   5  104.45    5.20
  -5   1  -5  102.63    3.68
  -5   1  -5  109.46    4.51
  -5   1  -5  104.34    4.22
  -5   1  -5  107.09    3.91
   5  -1   5  101.10    2.50
   5  -1   5  102.74    2.01
   5  -1   5  101.63    1.91
   5  -1   6    0.59    0.35
  -5   1  -6    0.60    0.64
   5  -1   6    0.85    0.40
   5  -1   6    0.06    0.33
  -5   1  -6    0.91    0.60
   5  -1   6    0.74    0.36
   5  -1   6    0.68    0.32
  -5   1  -7   45.45    2.74
   5  -1   7   44.72    1.55
  -5   1  -7   46.30    1.36
   5  -1   7   46.10    1.66
  -5   1  -7   44.23    2.57
   5  -1   7   43.24    1.26
   5  -1   7   43.40    1.27
  -5   1  -8   47.16    2.76
   5  -1   8   49.66    1.61
  -5   1  -8   47.34    1.34
   5  -1   8   46.30    1.32
   5  -1   8   45.36    1.29
   5  -1   9   13.19    0.91
  -5   1  -9   13.07    0.70
   5  -1   9   11.68    0.72
   5  -1   9   12.79    0.76
   5  -1  10  159.14    2.67
   5  -1  10  156.24    2.52
   5  -1  10  158.50    2.58
   5  -1  10  153.44    2.28
  -5   1 -11   14.24    0.70
   5  -1  11   14.00    0.72
   5  -1  11   15.00    0.77
   5  -1  12    2.57    0.42
   5  -1  12    2.85    0.36
  -5   1 -12    3.17    0.33
   5  -1  12    3.32    0.41
   5  -1  13   -0.13    0.30
   5  -1  13    0.47    0.27
  -5   0  13   26.65    0.71
   5   0 -13   25.52    0.76
  -5   0  12    6.33    0.48
  -5   0  12    6.88    0.40
   5   0 -12    6.89    0.54
   5   0 -11   10.67    0.60
  -5   0  11   10.45    0.66
  -5   0  11   11.23    0.61
   5   0 -11   11.63    0.76
  -5   0  11   10.89    0.63
   5   0 -10  123.04    2.18
   5   0 -10  127.02    2.15
  -5   0  10  128.62    2.26
  -5   0  10  131.31    2.21
   5   0 -10  126.64    1.77
  -5   0  10  131.24    2.18
  -5   0  10  128.58    2.21
   5   0  -9    4.20    0.52
   5   0  -9    4.03    0.48
  -5   0   9    3.96    0.52
  -5   0   9    4.39    0.55
  -5   0   9    4.44    0.53
   5   0  -9    4.01    0.46
   5   0  -9    5.14    0.46
   5   0  -9    4.49    0.38
  -5   0   9    3.86    0.55
  -5   0   9    5.22    0.53
   5   0  -8  127.08    1.91
   5   0  -8  130.61    2.50
   5   0  -8  130.12    2.49
  -5   0   8  126.62    2.15
   5   0  -8  140.17    2.10
  -5   0   8  133.69    2.40
  -5   0   8  132.60    2.47
  -5   0   8  144.45    2.37
   5   0  -8  131.56    2.36
   5   0  -8  134.09    2.00
  -5   0   8  132.54    2.38
  -5   0   8  132.75    2.40
   5   0  -7  189.79    2.48
   5   0  -7  197.18    3.17
   5   0  -7  193.30    3.13
  -5   0   7  205.10    2.87
   5   0  -7  209.01    2.69
  -5   0   7  198.48    2.94
  -5   0   7  209.67    3.12
  -5   0   7  210.45    2.97
   5   0  -7  186.90    2.98
   5   0  -7  198.24    2.57
  -5   0   7  199.50    2.93
  -5   0   7  194.93    2.95
   5   0  -6  688.70    6.35
   5   0  -6  677.83    5.57
   5   0  -6  641.43   11.00
   5   0  -6  621.95   10.24
   5   0  -6  716.22    6.70
   5   0  -6  712.62    6.69
  -5   0   6  707.37    6.18
  -5   0   6  739.07   10.23
   5   0  -6  753.93    5.87
  -5   0   6  691.21    6.17
   5   0  -6  763.75    7.36
  -5   0   6  780.66    6.38
   5   0  -6  697.10    6.45
   5   0  -6  704.59    5.76
  -5   0   6  716.34    6.20
   5   0  -5  213.13    3.14
   5   0  -5  207.70    2.60
   5   0  -5  208.39    6.03
   5   0  -5  193.80    5.23
   5   0  -5  221.48    3.35
   5   0  -5  219.77    3.35
  -5   0   5  193.51    5.04
  -5   0   5  237.67    3.15
  -5   0   5  235.06    5.57
   5   0  -5  233.47    2.80
  -5   0   5  148.70    2.04
   5   0  -5  234.84    3.69
  -5   0   5  234.23    5.22
  -5   0   5  242.35    3.11
   5   0  -5  210.28    3.15
   5   0  -5  212.44    2.67
  -5   0   5  221.58    2.97
   5   0  -4  168.42    2.28
   5   0  -4  181.97    5.56
   5   0  -4  183.64    3.01
  -5   0   4  168.87    4.69
  -5   0   4  201.36    2.84
  -5   0   4  194.94    5.03
   5   0  -4  185.07    2.46
   5   0  -4  194.95    3.29
  -5   0   4  197.57    4.80
  -5   0   4  190.94    2.71
   5   0  -4  179.45    2.88
   5   0  -4  173.19    2.38
  -5   0   4  189.99    2.64
   5   0  -3  346.77    7.75
  -5   0   3  349.04    6.84
  -5   0   3  381.16    4.12
  -5   0   3  380.65    7.07
  -5   0   3  368.31    6.57
  -5   0   3  374.67    4.00
   5   0  -2  745.23   11.55
  -5   0   2  750.90   10.43
  -5   0   2  799.11    6.59
  -5   0   2  790.07   10.47
  -5   0   2  786.24    9.99
  -5   0   2  772.00    6.35
   5   0  -1   32.37    2.30
  -5   0   1   33.86    2.12
  -5   0   1   47.15    1.27
  -5   0   1   45.45    2.37
  -5   0   1   48.15    2.34
  -5   0   1   42.28    1.12
   5   0   0  852.45   12.31
  -5   0   0  916.85   11.58
  -5   0   0  904.80    7.05
  -5   0   0  889.53   10.92
  -5   0   0  933.19   10.96
  -5   0   0  876.61    6.66
   5   0   1  233.43    7.34
   5   0   1  234.96    6.05
  -5   0  -1  268.87    5.94
  -5   0  -1  260.07    3.04
  -5   0  -1  262.26    5.43
  -5   0  -1  263.12    5.43
   5   0   2    8.45    1.53
   5   0   2    9.39    1.25
  -5   0  -2   10.81    1.28
  -5   0  -2    9.21    0.58
  -5   0  -2    8.63    1.16
   5   0   3   16.40    2.01
   5   0   3   19.78    1.75
  -5   0  -3   19.07    1.63
  -5   0  -3   17.67    1.68
  -5   0  -3   20.21    1.67
  -5   0  -3   17.74    1.58
   5   0   4   18.45    0.94
   5   0   4   17.30    2.17
   5   0   4   15.97    1.60
  -5   0  -4   17.28    1.58
   5   0   4   17.51    1.05
  -5   0  -4   16.91    1.61
   5   0   4   17.14    0.99
  -5   0  -4   20.40    1.62
  -5   0  -4   18.08    1.60
   5   0   4   18.72    0.80
   5   0   5    3.51    0.53
   5   0   5    3.68    0.51
   5   0   5    3.25    1.08
   5   0   5    5.52    0.68
  -5   0  -5    3.14    0.81
  -5   0  -5    3.35    0.95
   5   0   5    3.72    0.59
   5   0   5    3.83    0.55
  -5   0  -5    3.91    0.94
   5   0   5    2.97    0.42
   5   0   6    0.56    0.38
   5   0   6    0.35    0.32
   5   0   6    0.86    0.81
  -5   0  -6   -0.22    0.49
  -5   0  -6   -0.18    0.64
   5   0   6    0.62    0.40
   5   0   6    0.07    0.39
  -5   0  -6    0.15    0.50
  -5   0  -6    0.41    0.58
   5   0   6    0.37    0.31
  -5   0  -6    0.16    0.70
   5   0   7   63.78    2.05
  -5   0  -7   66.21    3.36
   5   0   7   61.49    1.92
  -5   0  -7   61.24    3.05
   5   0   7   59.32    2.02
  -5   0  -8  140.61    4.89
   5   0   8  146.00    2.78
  -5   0  -8  146.85    2.51
   5   0   8  144.20    3.03
   5   0   8  135.15    2.22
   5   0   9  260.66    3.95
   5   0   9  273.22    3.83
   5   0   9  259.11    3.66
  -5   0  -9  266.13    3.45
   5   0   9  262.51    4.15
   5   0   9  258.25    3.20
   5   0  10  109.55    2.20
   5   0  10  103.01    2.16
  -5   0 -10  108.19    1.99
  -5   0 -10  108.41    1.97
   5   0  10  102.77    1.85
   5   0  11   12.89    0.75
  -5   0 -11   11.77    0.62
   5   0  12  110.00    1.84
  -5   0 -12  106.86    1.57
   5   0  12  106.99    1.83
  -5   0 -12  109.29    1.74
   5   0  12  111.88    1.85
   5   0  13   26.02    0.76
   5   0  13   26.71    0.76
   5   0  13   27.53    0.78
   5   1 -13    2.09    0.30
  -5  -1  13    2.79    0.31
   5   1 -12    3.53    0.31
  -5  -1  12    4.67    0.43
   5   1 -12    4.33    0.44
   5   1 -11    6.39    0.48
  -5  -1  11    6.04    0.47
  -5  -1  11    5.50    0.50
   5   1 -11    7.20    0.60
   5   1 -10   81.77    1.75
  -5  -1  10   77.42    1.71
  -5  -1  10   79.45    1.66
   5   1 -10   80.80    1.98
  -5  -1  10   81.89    1.76
   5   1  -9  102.54    2.13
  -5  -1   9  101.26    2.06
  -5  -1   9  103.94    2.06
   5   1  -9  104.60    1.65
  -5  -1   9  104.53    2.09
   5   1  -8   12.84    0.76
   5   1  -8   12.57    0.84
   5   1  -8   14.34    0.68
  -5  -1   8   13.06    0.80
  -5  -1   8   13.71    0.83
  -5  -1   8   14.82    0.85
  -5  -1   8   13.47    0.83
   5   1  -7  157.23    2.72
   5   1  -7  160.40    2.91
  -5  -1   7  164.62    2.53
   5   1  -7  172.05    2.38
  -5  -1   7  159.26    2.63
  -5  -1   7  164.45    2.79
  -5  -1   7  169.16    2.62
   5   1  -7  157.79    2.27
  -5  -1   7  159.76    2.63
  -5  -1   7  167.98    2.78
   5   1  -6   30.08    0.98
   5   1  -6   32.28    1.22
   5   1  -6   34.20    1.32
  -5  -1   6   33.52    1.15
   5   1  -6   36.69    1.10
  -5  -1   6   33.92    1.16
  -5  -1   6   36.72    1.29
   5   1  -6   35.23    1.45
  -5  -1   6   34.63    1.21
   5   1  -6   35.54    1.07
  -5  -1   6   32.04    1.16
  -5  -1   6   35.11    1.24
   5   1  -5   14.57    0.68
   5   1  -5   13.20    1.54
   5   1  -5   14.38    0.84
   5   1  -5   15.36    0.91
  -5  -1   5   14.63    0.80
  -5  -1   5   16.13    0.88
   5   1  -5   14.78    0.95
  -5  -1   5   15.60    0.84
   5   1  -5   14.96    0.70
   5   1  -5   14.73    0.71
  -5  -1   5   14.36    0.78
  -5  -1   5   14.04    0.77
   5   1  -4    9.66    0.56
   5   1  -4    9.19    1.29
   5   1  -4    9.61    0.68
  -5  -1   4    8.05    1.07
  -5  -1   4   10.13    0.69
   5   1  -4   10.48    0.60
  -5  -1   4   10.15    0.71
   5   1  -4   10.62    0.79
  -5  -1   4    9.74    0.66
   5   1  -4    9.03    0.64
   5   1  -4    9.18    0.57
  -5  -1   4    9.92    0.63
   5   1  -3   18.28    1.75
  -5  -1   3   16.90    1.47
  -5  -1   3   17.86    0.86
  -5  -1   3   16.61    0.81
   5   1  -2  405.69    8.17
  -5  -1   2  420.62    7.33
  -5  -1   2  428.99    4.37
  -5  -1   2  406.30    4.12
   5   1  -1  700.67   10.85
  -5  -1   1  735.21   10.03
  -5  -1   1  741.41    6.12
  -5  -1   1  735.58    9.59
  -5  -1   1  685.07    5.77
   5   1   0   46.03    2.64
  -5  -1   0   49.43    2.47
  -5  -1   0   53.35    1.32
  -5  -1   0   46.20    1.14
   5   1   1  207.55    6.72
   5   1   1  221.33    5.78
  -5  -1  -1  246.22    5.56
  -5  -1  -1  233.80    2.88
  -5  -1  -1  245.68    5.94
  -5  -1  -1  251.21    5.40
   5   1   2  234.25    7.17
   5   1   2  241.90    6.05
  -5  -1  -2  261.79    5.78
  -5  -1  -2  247.66    2.94
  -5  -1  -2  262.31    6.20
  -5  -1  -2  259.64    5.46
   5   1   3  180.18    6.40
   5   1   3  170.25    5.07
  -5  -1  -3  186.40    4.94
  -5  -1  -3  170.65    2.36
  -5  -1  -3  185.90    5.24
  -5  -1  -3  178.44    4.74
   5   1   4   60.68    1.64
   5   1   4   61.42    3.81
   5   1   4   64.39    3.13
  -5  -1  -4   63.51    3.05
   5   1   4   64.51    1.95
   5   1   4   58.41    1.74
  -5  -1  -4   62.97    2.86
   5   1   4   61.06    1.95
   5   1   5  103.88    2.20
   5   1   5  102.48    4.96
   5   1   5   98.08    3.86
   5   1   5  102.24    2.56
  -5  -1  -5  103.57    3.81
  -5  -1  -5  109.71    4.23
   5   1   5  106.89    2.50
  -5  -1  -5  101.99    3.75
   5   1   5   99.20    1.84
  -5  -1  -5  103.51    2.03
   5   1   5  106.98    2.54
   5   1   6  103.49    2.24
   5   1   6  104.14    5.14
   5   1   6   99.72    2.61
  -5  -1  -6  101.99    3.84
  -5  -1  -6  103.51    4.43
  -5  -1  -6   99.89    4.18
   5   1   6  107.88    2.61
   5   1   6  111.46    2.55
  -5  -1  -6  102.53    3.89
  -5  -1  -6  105.52    4.10
   5   1   6  104.70    2.60
  -5  -1  -6  107.23    2.02
   5   1   7   62.95    1.77
  -5  -1  -7   61.75    2.87
  -5  -1  -7   61.67    3.27
   5   1   7   63.12    2.03
   5   1   7   63.53    1.97
  -5  -1  -7   59.18    3.14
   5   1   7   59.96    2.04
  -5  -1  -7   60.74    1.48
   5   1   8    2.78    0.53
   5   1   8    4.24    0.67
  -5  -1  -8    3.48    0.93
  -5  -1  -8    2.73    0.46
   5   1   8    4.20    0.64
   5   1   8    2.25    0.35
   5   1   8    2.90    0.62
   5   1   9    1.77    0.48
   5   1   9    2.35    0.55
   5   1   9    2.96    0.63
   5   1   9    1.96    0.47
  -5  -1  -9    1.92    0.42
   5   1   9    1.47    0.51
   5   1   9    2.11    0.38
   5   1  10    0.21    0.40
   5   1  10    0.62    0.41
   5   1  10    0.18    0.37
  -5  -1 -10    0.49    0.32
  -5  -1 -10    0.35    0.35
   5   1  10    0.98    0.51
  -5  -1 -10    0.36    0.28
   5   1  10    0.43    0.28
   5   1  11    0.07    0.38
   5   1  11   -0.28    0.33
   5   1  11   -0.09    0.37
  -5  -1 -11   -0.04    0.25
  -5  -1 -11    0.08    0.27
   5   1  12   19.08    0.78
  -5  -1 -12   18.70    0.68
  -5  -1 -12   19.48    0.78
  -5  -1 -12   18.30    0.72
  -5  -1 -12   19.75    0.78
   5   1  13   15.20    0.59
  -5  -1 -13   16.03    0.56
   5   1  13   16.47    0.69
  -5  -1 -13   15.36    0.60
   5   1  13   16.15    0.66
  -5  -2  12   20.46    0.63
   5   2 -12   21.02    0.64
   5   2 -12   21.53    0.71
  -5  -2  12   23.06    0.72
   5   2 -11    0.20    0.26
  -5  -2  11    0.00    0.33
   5   2 -11    0.18    0.29
   5   2 -10    1.47    0.37
  -5  -2  10    1.21    0.39
  -5  -2  10    0.91    0.34
   5   2 -10    1.42    0.40
   5   2  -9   71.51    1.78
  -5  -2   9   69.47    1.67
  -5  -2   9   72.74    1.67
   5   2  -9   69.94    1.85
  -5  -2   9   71.79    1.74
  -5  -2   8  159.14    2.66
   5   2  -8  162.17    2.87
  -5  -2   8  157.22    2.63
   5   2  -8  163.80    3.00
  -5  -2   8  162.03    2.75
   5   2  -7   68.34    1.88
  -5  -2   7   68.35    1.55
   5   2  -7   70.00    1.45
  -5  -2   7   67.21    1.68
  -5  -2   7   69.15    1.78
   5   2  -7   70.94    2.00
  -5  -2   7   67.75    1.71
  -5  -2   7   69.45    1.79
   5   2  -6   46.39    1.54
  -5  -2   6   49.10    1.36
   5   2  -6   45.91    1.45
  -5  -2   6   45.00    1.36
  -5  -2   6   48.78    1.48
   5   2  -6   48.73    1.67
   5   2  -6   46.50    1.21
   5   2  -6   47.40    1.23
  -5  -2   6   45.88    1.44
   5   2  -5   26.14    1.18
  -5  -2   5   29.34    1.07
   5   2  -5   27.38    0.93
   5   2  -5   27.07    1.12
  -5  -2   5   26.13    1.00
  -5  -2   5   28.21    1.12
   5   2  -5   27.60    1.26
   5   2  -5   26.38    0.93
  -5  -2   5   25.73    1.04
   5   2  -4    4.19    0.41
   5   2  -4    5.25    1.02
   5   2  -4    5.62    0.59
  -5  -2   4    5.61    0.55
   5   2  -4    5.40    0.55
  -5  -2   4    4.04    0.87
  -5  -2   4    5.67    0.58
   5   2  -4    6.23    0.64
   5   2  -4    5.20    0.46
   5   2  -4    5.17    0.46
  -5  -2   4    5.09    0.52
   5   2  -3   11.39    0.58
   5   2  -3    5.85    1.15
   5   2  -3    5.54    0.58
  -5  -2   3    5.88    0.90
  -5  -2   3    4.57    0.52
  -5  -2   3    3.72    0.91
   5   2  -3    5.39    0.45
  -5  -2   3    5.56    0.56
   5   2  -3    6.25    0.61
   5   2  -3   12.64    0.62
  -5  -2   3    4.73    0.46
   5   2  -2    0.89    0.65
  -5  -2   2    0.71    0.52
  -5  -2   2    0.24    0.37
  -5  -2   2    0.78    0.70
   5   2  -1  234.14    5.96
  -5  -2   1  244.98    5.39
  -5  -2   1  246.08    3.12
  -5  -2   1  247.35    5.94
   5   2   0  574.23    9.58
  -5  -2   0  592.62    8.80
  -5  -2   0  587.54    5.32
  -5  -2   0  594.37    9.58
   5   2   1   23.38    2.27
   5   2   1   23.59    1.89
  -5  -2  -1   22.26    1.70
  -5  -2  -1   25.34    0.93
  -5  -2  -1   23.61    1.91
  -5  -2  -1   21.85    1.58
   5   2   2   27.97    2.47
   5   2   2   29.85    2.10
  -5  -2  -2   27.74    1.91
  -5  -2  -2   26.96    0.94
  -5  -2  -2   29.18    2.14
  -5  -2  -2   26.95    1.77
   5   2   3    3.90    1.17
   5   2   3    3.22    0.86
  -5  -2  -3    4.02    0.41
  -5  -2  -3    6.24    1.12
  -5  -2  -3    4.26    0.83
   5   2   4   10.43    0.69
   5   2   4    9.37    1.54
   5   2   4   10.53    1.34
  -5  -2  -4   11.00    1.45
   5   2   4   11.20    0.84
   5   2   4    9.79    0.73
  -5  -2  -4   10.67    1.28
   5   2   4    9.87    0.81
   5   2   4   11.48    0.82
   5   2   5   29.70    1.15
   5   2   5   27.64    2.61
   5   2   5   28.26    2.14
  -5  -2  -5   28.25    2.12
   5   2   5   29.38    1.38
  -5  -2  -5   29.85    2.23
  -5  -2  -5   29.22    2.02
  -5  -2  -5   30.69    1.12
   5   2   5   28.81    1.39
   5   2   5   30.59    1.35
   5   2   6    6.88    0.60
   5   2   6    5.42    1.39
   5   2   6    6.07    1.08
   5   2   6    5.55    0.71
  -5  -2  -6    5.79    1.11
  -5  -2  -6    8.77    1.34
   5   2   6    6.71    0.71
  -5  -2  -6    7.48    1.17
  -5  -2  -6    6.02    0.54
   5   2   6    6.16    0.71
  -5  -2  -6    5.93    1.15
   5   2   7    0.91    0.50
   5   2   7    0.32    0.30
   5   2   7    0.42    0.35
  -5  -2  -7    0.64    0.59
  -5  -2  -7    1.27    0.75
   5   2   7    0.39    0.40
  -5  -2  -7    0.59    0.58
  -5  -2  -7    0.34    0.25
   5   2   8    3.36    0.62
   5   2   8    3.42    0.57
  -5  -2  -8    2.52    0.92
   5   2   8    2.38    0.49
   5   2   8    2.57    0.57
  -5  -2  -8    3.74    0.51
   5   2   8    2.54    0.57
  -5  -2  -8    2.05    0.36
   5   2   9  357.74    4.80
   5   2   9  355.59    5.16
   5   2   9  364.40    4.55
  -5  -2  -9  364.03    4.33
   5   2   9  371.83    5.08
   5   2   9  346.10    5.17
  -5  -2  -9  359.33    4.10
   5   2  10   11.29    0.88
   5   2  10   11.08    0.77
   5   2  10   12.75    0.83
  -5  -2 -10   11.69    0.75
  -5  -2 -10   12.70    0.78
   5   2  10   11.47    0.95
  -5  -2 -10   13.25    0.75
   5   2  11    4.53    0.61
   5   2  11    4.47    0.50
   5   2  11    5.10    0.60
  -5  -2 -11    4.36    0.48
  -5  -2 -11    5.03    0.52
   5   2  11    4.70    0.68
  -5  -2 -11    4.83    0.46
   5   2  12   31.50    0.94
  -5  -2 -12   32.42    0.98
   5   2  12   30.86    1.20
   5   2  12   30.99    0.92
  -5  -2 -12   31.80    0.99
   5   2  12   32.29    1.12
  -5  -2 -12   30.64    0.97
  -5  -2 -12   32.42    1.00
   5   2  13    5.21    0.36
  -5  -2 -13    6.19    0.43
  -5  -2 -13    5.76    0.38
  -5  -2 -13    6.49    0.42
   5   2  14    0.83    0.31
  -5  -2 -14    0.26    0.23
   5   2  14    0.28    0.25
   5   3 -12    1.52    0.26
  -5  -3  12    1.53    0.30
  -5  -3  11    7.81    0.48
   5   3 -11    8.00    0.50
  -5  -3  11    8.36    0.51
   5   3 -11    7.57    0.46
   5   3 -10   37.61    1.15
  -5  -3  10   38.93    1.11
   5   3 -10   36.44    1.10
   5   3  -9   37.37    1.26
   5   3  -9   35.26    1.09
  -5  -3   9   36.99    1.19
  -5  -3   9   37.73    1.17
   5   3  -9   34.90    1.21
   5   3  -8   41.45    1.41
   5   3  -8   39.43    1.28
  -5  -3   8   40.06    1.28
  -5  -3   8   41.38    1.32
   5   3  -8   39.83    1.37
   5   3  -7    0.11    0.42
   5   3  -7    0.30    0.35
  -5  -3   7    0.19    0.34
  -5  -3   7    0.46    0.40
   5   3  -7    0.52    0.35
   5   3  -6    0.11    0.35
  -5  -3   6    0.05    0.31
   5   3  -6    0.21    0.33
   5   3  -6    0.21    0.30
  -5  -3   6   -0.25    0.34
  -5  -3   6   -0.22    0.40
   5   3  -6    0.22    0.38
  -5  -3   6    0.42    0.36
   5   3  -5    5.52    0.57
   5   3  -5    5.84    0.63
  -5  -3   5    5.82    0.58
   5   3  -5    5.60    0.60
  -5  -3   5    5.22    0.52
  -5  -3   5    6.33    0.62
   5   3  -5    8.04    0.71
  -5  -3   5    5.86    0.59
   5   3  -4    9.98    0.74
   5   3  -4    9.82    0.76
  -5  -3   4    9.30    0.68
   5   3  -4    9.54    0.74
  -5  -3   4   10.37    0.73
  -5  -3   4    8.75    0.69
   5   3  -4   10.17    0.78
  -5  -3   4   10.26    0.74
   5   3  -3    3.95    0.90
   5   3  -3    3.94    0.51
   5   3  -3    5.64    0.60
  -5  -3   3    4.01    0.51
   5   3  -3    4.11    0.53
  -5  -3   3    4.09    0.51
   5   3  -3    3.66    0.51
  -5  -3   3    3.83    0.52
   5   3  -2   19.00    1.72
   5   3  -2   18.36    0.95
   5   3  -2   19.60    1.00
  -5  -3   2   19.89    0.91
   5   3  -2   20.77    1.02
  -5  -3   2   18.78    1.70
  -5  -3   2   19.98    0.89
   5   3  -2   18.08    0.96
   5   3  -2   20.43    0.77
  -5  -3   2   21.71    0.98
   5   3  -1  141.79    4.58
   5   3  -1  143.54    2.70
  -5  -3   1  149.75    2.42
  -5  -3   1  145.93    4.55
   5   3  -1  139.63    2.64
  -5  -3   1  154.03    2.62
   5   3   0   58.76    2.97
  -5  -3   0   57.10    1.46
  -5  -3   0   58.70    2.91
   5   3   1   33.26    2.65
   5   3   1   36.24    2.36
  -5  -3  -1   33.97    1.11
  -5  -3  -1   32.84    2.23
   5   3   2  446.95    9.94
  -5  -3  -2  475.61    4.60
  -5  -3  -2  490.86    8.83
  -5  -3  -2  450.10    7.32
   5   3   3  520.71   10.80
  -5  -3  -3  559.58    9.59
   5   3   3  552.20    6.23
  -5  -3  -3  562.88    5.55
  -5  -3  -3  519.99    8.14
   5   3   3  550.07    6.25
   5   3   4   69.66    1.69
   5   3   4   70.75    4.00
  -5  -3  -4   74.49    3.40
   5   3   4   74.38    2.09
  -5  -3  -4   73.30    3.37
  -5  -3  -4   73.79    1.75
  -5  -3  -4   71.67    3.00
  -5  -3  -4   76.70    1.80
   5   3   4   71.39    2.10
   5   3   4   75.45    2.06
   5   3   5  141.67    2.49
   5   3   5  152.19    2.76
   5   3   5  145.94    5.83
  -5  -3  -5  157.10    4.97
   5   3   5  150.01    3.11
  -5  -3  -5  151.77    4.92
  -5  -3  -5  150.30    2.50
  -5  -3  -5  156.18    2.63
   5   3   5  142.56    3.08
   5   3   5  154.15    3.03
   5   3   6    4.52    0.49
   5   3   6    4.89    0.59
   5   3   6    6.03    1.33
   5   3   6    4.27    0.64
  -5  -3  -6    4.02    1.03
  -5  -3  -6    5.09    1.10
  -5  -3  -6    4.26    1.00
  -5  -3  -6    6.12    0.56
  -5  -3  -6    5.25    0.57
   5   3   6    4.63    0.64
   5   3   7  150.98    2.59
   5   3   7  153.73    2.99
  -5  -3  -7  157.54    5.21
   5   3   7  165.90    3.30
  -5  -3  -7  155.89    2.72
  -5  -3  -7  153.47    2.55
  -5  -3  -7  150.84    2.64
   5   3   7  155.93    3.23
   5   3   8    0.95    0.46
   5   3   8    0.80    0.42
   5   3   8    0.99    0.42
   5   3   8    1.21    0.52
  -5  -3  -8    1.37    0.41
  -5  -3  -8    0.46    0.53
  -5  -3  -8    1.22    0.32
  -5  -3  -8    1.15    0.39
  -5  -3  -8    1.13    0.34
   5   3   9   37.64    1.50
   5   3   9   38.42    1.62
   5   3   9   39.44    1.42
  -5  -3  -9   39.71    1.33
  -5  -3  -9   39.47    1.35
   5   3   9   39.25    1.60
   5   3   9   37.51    1.63
  -5  -3  -9   37.40    1.26
   5   3  10    0.90    0.44
   5   3  10    0.70    0.55
   5   3  10    2.09    0.52
  -5  -3 -10    1.14    0.38
  -5  -3 -10    1.46    0.43
   5   3  10    1.05    0.55
  -5  -3 -10    1.32    0.40
  -5  -3 -10    1.36    0.38
  -5  -3 -10    1.72    0.35
   5   3  11   26.18    1.19
   5   3  11   25.28    0.94
   5   3  11   26.63    1.10
  -5  -3 -11   27.15    1.04
  -5  -3 -11   26.85    1.02
   5   3  11   26.55    1.26
  -5  -3 -11   27.72    0.98
  -5  -3 -11   27.31    1.00
  -5  -3 -12   15.43    0.72
   5   3  12   14.01    0.86
  -5  -3 -12   14.32    0.66
   5   3  12   14.51    0.80
  -5  -3 -12   14.32    0.70
  -5  -3 -12   14.11    0.66
  -5  -3 -12   13.74    0.64
  -5  -3 -13    5.58    0.44
  -5  -3 -13    5.81    0.42
   5   3  13    5.38    0.52
   5   3  13    5.93    0.50
  -5  -3 -13    5.85    0.39
  -5  -3 -14   42.17    0.80
  -5  -3 -14   44.01    0.84
   5   3  14   43.87    0.90
  -5  -4  11   19.17    0.59
   5   4 -11   20.39    0.66
  -5  -4  11   21.26    0.66
  -5  -4  10   55.76    1.25
   5   4 -10   57.66    1.29
  -5  -4  10   57.56    1.24
   5   4  -9  139.92    2.08
   5   4  -9  160.17    2.49
   5   4  -9  151.20    2.24
  -5  -4   9  155.72    2.32
   5   4  -9  143.31    2.15
   5   4  -8   10.02    0.65
   5   4  -8   10.79    0.76
   5   4  -8   10.46    0.69
   5   4  -8   10.24    0.64
  -5  -4   8   10.28    0.68
   5   4  -7   14.82    0.84
   5   4  -7   15.85    0.95
   5   4  -7   15.38    0.87
  -5  -4   7   15.77    0.88
   5   4  -7   15.07    0.83
  -5  -4   7   15.32    0.84
   5   4  -6  302.78    4.04
   5   4  -6  300.79    4.10
   5   4  -6  302.95    4.02
  -5  -4   6  301.66    3.88
  -5  -4   6  297.91    3.76
  -5  -4   6  307.14    3.72
  -5  -4   5   30.62    1.13
   5   4  -5   31.74    1.30
   5   4  -5   32.81    1.31
   5   4  -5   32.03    1.30
  -5  -4   5   32.44    1.24
  -5  -4   5   32.55    1.20
   5   4  -5   32.35    1.24
  -5  -4   5   34.62    1.25
   5   4  -4   23.84    1.13
   5   4  -4   23.91    1.14
   5   4  -4   23.95    1.13
  -5  -4   4   25.48    1.04
  -5  -4   4   25.77    1.11
   5   4  -4   23.41    1.06
  -5  -4   4   24.12    1.08
   5   4  -3  204.15    3.35
   5   4  -3  200.04    3.18
   5   4  -3  197.41    3.29
   5   4  -3  195.23    3.27
  -5  -4   3  204.65    3.13
  -5  -4   3  194.16    3.00
  -5  -4   3  202.67    3.17
   5   4  -2   93.81    3.74
   5   4  -2   95.58    2.25
   5   4  -2   93.62    2.13
   5   4  -2   90.69    2.18
  -5  -4   2   93.47    1.97
   5   4  -2   96.60    2.23
  -5  -4   2   97.89    3.63
  -5  -4   2   99.90    2.14
  -5  -4   2   92.41    1.96
   5   4  -2   87.13    2.05
  -5  -4   2   97.17    2.13
   5   4  -1  219.51    5.78
   5   4  -1  230.36    3.57
   5   4  -1  232.37    3.45
   5   4  -1  220.17    3.45
  -5  -4   1  225.33    3.14
  -5  -4   1  224.98    5.66
  -5  -4   1  240.09    3.43
  -5  -4   1  215.44    3.03
   5   4  -1  205.84    3.25
  -5  -4   1  230.17    3.36
   5   4   0   17.44    1.70
   5   4   0   18.18    1.00
   5   4   0   17.87    0.94
   5   4   0   16.84    0.93
  -5  -4   0   18.71    0.90
  -5  -4   0   17.94    1.70
  -5  -4   0   16.01    0.77
  -5  -4   0   19.00    0.94
   5   4   0   18.40    1.03
   5   4   1    2.26    0.44
   5   4   1    2.37    0.41
  -5  -4  -1    2.94    0.89
   5   4   1    2.50    0.45
  -5  -4  -1    2.59    0.48
  -5  -4  -1    2.48    0.44
   5   4   2  118.17    2.54
   5   4   2  114.06    4.86
   5   4   2  123.62    2.50
  -5  -4  -2  124.97    4.42
  -5  -4  -2  125.01    2.40
  -5  -4  -2  125.09    2.33
  -5  -4  -2  126.68    2.35
   5   4   2  123.16    2.66
   5   4   3   14.20    1.79
   5   4   3   16.16    0.93
  -5  -4  -3   14.14    1.60
   5   4   3   13.49    0.93
  -5  -4  -3   13.90    1.43
  -5  -4  -3   13.44    0.81
  -5  -4  -3   13.50    0.80
  -5  -4  -3   12.15    0.75
   5   4   3   16.14    0.99
   5   4   4  537.58    5.60
   5   4   4  495.45   10.67
  -5  -4  -4  564.48    9.89
   5   4   4  534.74    6.13
  -5  -4  -4  538.60    9.20
  -5  -4  -4  527.49    5.44
  -5  -4  -4  541.78    5.52
  -5  -4  -4  508.62    5.21
   5   4   4  519.31    6.20
   5   4   4  547.90    6.15
   5   4   5  486.23    5.42
   5   4   5  444.31   10.22
  -5  -4  -5  512.33    9.55
   5   4   5  490.27    5.88
  -5  -4  -5  483.93    9.13
  -5  -4  -5  492.77    8.98
  -5  -4  -5  486.15    5.09
  -5  -4  -5  501.59    5.29
  -5  -4  -5  508.75    5.33
   5   4   5  452.66    5.86
   5   4   5  508.71    5.93
   5   4   6  327.94    4.44
   5   4   6  320.10    4.73
  -5  -4  -6  327.75    7.40
  -5  -4  -6  334.18    4.06
  -5  -4  -6  335.45    4.13
  -5  -4  -6  338.17    4.19
   5   4   6  326.38    4.75
   5   4   7   10.47    0.83
   5   4   7    9.10    0.84
  -5  -4  -7    9.71    1.36
  -5  -4  -7   10.78    0.73
  -5  -4  -7   12.10    0.77
  -5  -4  -7   11.03    0.76
   5   4   7   10.19    0.87
   5   4   8  161.03    3.09
   5   4   8  165.38    3.34
  -5  -4  -8  164.65    2.75
  -5  -4  -8  158.07    2.61
  -5  -4  -8  165.96    2.84
  -5  -4  -8  158.31    2.70
   5   4   8  158.48    3.27
   5   4   9    2.79    0.61
   5   4   9    2.95    0.57
   5   4   9    2.48    0.52
   5   4   9    3.17    0.65
  -5  -4  -9    2.78    0.48
  -5  -4  -9    3.25    0.53
  -5  -4  -9    3.45    0.44
   5   4   9    2.78    0.64
  -5  -4  -9    3.46    0.55
  -5  -4  -9    2.32    0.49
   5   4  10  180.21    3.18
   5   4  10  174.54    3.35
   5   4  10  177.67    2.98
  -5  -4 -10  180.96    2.82
  -5  -4 -10  186.34    2.83
  -5  -4 -10  183.60    2.57
   5   4  10  186.20    3.30
  -5  -4 -10  185.81    2.86
  -5  -4 -10  177.92    2.74
  -5  -4 -10  181.40    2.69
  -5  -4 -11  131.92    2.28
   5   4  11  124.98    2.55
   5   4  11  122.27    1.94
  -5  -4 -11  121.89    1.97
  -5  -4 -11  125.65    2.22
   5   4  11  131.14    2.37
  -5  -4 -11  129.36    2.22
   5   4  11  132.37    2.63
  -5  -4 -11  128.50    2.00
  -5  -4 -11  129.62    2.21
  -5  -4 -11  124.74    1.96
  -5  -4 -12    5.71    0.51
  -5  -4 -12    5.50    0.49
   5   4  12    4.49    0.55
   5   4  12    4.93    0.53
  -5  -4 -12    4.41    0.44
   5   4  12    4.75    0.57
  -5  -4 -12    5.21    0.39
  -5  -4 -12    4.53    0.44
  -5  -4 -13   39.87    0.97
  -5  -4 -13   38.66    0.94
   5   4  13   37.86    1.12
   5   4  13   37.02    1.02
  -5  -4 -13   36.70    0.79
  -5  -4 -14    3.31    0.30
  -5  -4 -14    3.52    0.31
   5   4  14    3.28    0.35
  -5  -5  10   36.64    0.86
   5   5 -10   37.77    0.90
  -5  -5  10   38.40    0.89
   5   5  -9  115.65    1.73
  -5  -5   9  129.98    1.98
   5   5  -9  131.40    2.00
   5   5  -9  127.41    1.88
  -5  -5   9  129.29    1.92
  -5  -5   9  118.38    1.68
   5   5  -8  103.73    1.87
  -5  -5   8  109.85    2.03
   5   5  -8  106.68    1.99
   5   5  -8  104.92    1.93
  -5  -5   8  103.60    1.89
  -5  -5   8  102.99    1.81
  -5  -5   7   93.40    2.01
   5   5  -7   90.97    1.93
   5   5  -7   91.59    1.99
   5   5  -7   91.56    1.95
  -5  -5   7   87.62    1.82
  -5  -5   7   92.64    1.88
   5   5  -6   69.72    1.67
   5   5  -6   74.87    1.89
   5   5  -6   76.57    1.90
   5   5  -6   76.20    1.89
  -5  -5   6   73.72    1.73
  -5  -5   6   75.98    1.77
   5   5  -5   64.93    1.72
   5   5  -5   67.15    1.86
   5   5  -5   67.44    1.83
   5   5  -5   66.37    1.82
  -5  -5   5   63.44    1.62
  -5  -5   5   70.37    1.79
  -5  -5   5   70.99    1.72
   5   5  -4   78.66    2.05
   5   5  -4   78.85    1.94
   5   5  -4   78.69    2.01
   5   5  -4   77.60    2.01
  -5  -5   4   73.34    1.73
  -5  -5   4   78.27    1.76
  -5  -5   4   80.37    1.87
  -5  -5   4   80.94    1.95
  -5  -5   4   81.67    1.93
   5   5  -4   76.57    1.78
   5   5  -3    0.09    0.31
   5   5  -3    0.50    0.41
   5   5  -3    0.19    0.37
   5   5  -3    0.11    0.35
  -5  -5   3   -0.09    0.32
  -5  -5   3    0.16    0.31
  -5  -5   3    0.08    0.36
  -5  -5   3    0.91    0.41
   5   5  -3    0.36    0.28
   5   5  -2    0.25    0.36
   5   5  -2    1.13    0.43
   5   5  -2   -0.02    0.43
   5   5  -2    0.18    0.34
  -5  -5   2    1.33    0.40
  -5  -5   2    0.25    0.29
  -5  -5   2    0.28    0.38
  -5  -5   2    0.42    0.36
   5   5  -2    0.05    0.28
   5   5  -1   32.05    1.34
   5   5  -1   34.40    1.34
  -5  -5   1   30.95    1.14
   5   5  -1   32.73    1.28
  -5  -5   1   31.49    2.10
  -5  -5   1   35.18    1.30
  -5  -5   1   33.51    1.25
  -5  -5   1   32.50    1.27
  -5  -5   1   32.91    1.13
  -5  -5   1   35.02    1.30
   5   5  -1   32.01    1.19
   5   5  -1   32.70    1.35
   5   5   0    2.52    0.47
   5   5   0    3.93    0.92
   5   5   0    3.20    0.48
   5   5   0    3.30    0.48
  -5  -5   0    3.44    0.88
   5   5   0    2.75    0.49
  -5  -5   0    3.37    0.50
  -5  -5   0    3.46    0.46
  -5  -5   0    3.11    0.43
  -5  -5   0    3.19    0.50
   5   5   0    3.50    0.47
   5   5   1    7.03    0.68
   5   5   1    6.97    0.59
   5   5   1    7.07    0.65
  -5  -5  -1    8.84    1.27
  -5  -5  -1    7.58    0.67
  -5  -5  -1   10.14    0.68
  -5  -5  -1    8.68    0.70
   5   5   1    7.32    0.69
   5   5   2  376.95    4.84
   5   5   2  368.53    4.45
   5   5   2  373.87    4.78
  -5  -5  -2  395.39    8.12
  -5  -5  -2  383.16    4.59
  -5  -5  -2  382.15    4.52
  -5  -5  -2  381.59    4.44
  -5  -5  -2  383.17    4.53
   5   5   2  371.98    4.93
   5   5   3   62.69    1.86
   5   5   3   65.20    1.75
   5   5   3   65.28    1.88
  -5  -5  -3   64.90    3.32
   5   5   3   65.78    1.93
  -5  -5  -3   65.72    1.76
  -5  -5  -3   65.27    1.74
  -5  -5  -3   65.12    1.72
  -5  -5  -3   65.08    1.72
   5   5   3   63.63    1.93
   5   5   4   74.81    1.93
   5   5   4   76.01    2.06
   5   5   4   72.96    2.04
  -5  -5  -4   77.37    1.89
  -5  -5  -4   77.43    1.70
  -5  -5  -4   76.39    1.89
  -5  -5  -4   74.47    1.87
  -5  -5  -4   73.17    1.80
   5   5   4   69.46    2.06
  -5  -5  -5    8.57    0.62
   5   5   5    8.70    0.74
   5   5   5    7.66    0.73
  -5  -5  -5    7.55    0.64
  -5  -5  -5    8.74    0.71
  -5  -5  -5    8.26    0.69
  -5  -5  -5    7.62    0.62
   5   5   5    8.76    0.83
   5   5   6  670.75    6.80
   5   5   6  655.48    7.04
  -5  -5  -6  667.59   10.53
  -5  -5  -6  675.51    6.21
  -5  -5  -6  681.05    6.51
  -5  -5  -6  687.83    6.65
  -5  -5  -6  678.74    6.57
   5   5   6  677.49    7.13
   5   5   7  158.63    2.97
  -5  -5  -7  154.79    2.60
  -5  -5  -7  155.31    2.59
  -5  -5  -7  149.71    2.67
  -5  -5  -7  160.10    2.84
  -5  -5  -7  155.41    2.77
   5   5   7  153.24    3.12
   5   5   8    0.09    0.41
   5   5   8    0.40    0.43
  -5  -5  -8    1.18    0.38
   5   5   8    0.70    0.53
  -5  -5  -8    0.24    0.33
  -5  -5  -8    1.16    0.44
  -5  -5  -8    0.44    0.36
  -5  -5  -8    1.09    0.42
   5   5   9   28.57    1.29
   5   5   9   29.70    1.36
  -5  -5  -9   30.51    1.13
  -5  -5  -9   29.72    1.11
  -5  -5  -9   28.64    1.05
  -5  -5  -9   31.99    1.21
  -5  -5  -9   29.81    1.18
   5   5   9   28.56    1.33
  -5  -5  -9   32.12    1.19
   5   5  10  194.12    3.30
   5   5  10  200.98    3.41
  -5  -5 -10  195.77    2.88
   5   5  10  207.58    3.13
  -5  -5 -10  203.76    2.89
   5   5  10  209.06    3.43
  -5  -5 -10  197.66    2.66
   5   5  10  193.55    3.29
  -5  -5 -10  210.86    3.03
  -5  -5 -10  201.24    2.93
  -5  -5 -10  204.30    2.89
  -5  -5 -11    4.61    0.53
   5   5  11    4.42    0.59
   5   5  11    3.73    0.56
   5   5  11    4.09    0.53
  -5  -5 -11    3.39    0.44
   5   5  11    4.53    0.62
  -5  -5 -11    3.87    0.49
  -5  -5 -11    3.31    0.40
  -5  -5 -12    7.79    0.52
  -5  -5 -12    7.46    0.53
   5   5  12    9.02    0.68
   5   5  12    7.66    0.57
   5   5  12    7.02    0.60
  -5  -5 -12    6.92    0.50
  -5  -5 -13    0.04    0.27
  -5  -5 -13    0.17    0.28
   5   5  13    0.24    0.34
  -5  -5 -13    0.40    0.27
   5   5  13    0.13    0.31
   5   5  13    0.07    0.24
  -5  -6   9   17.29    0.62
   5   6  -9   17.02    0.59
  -5  -6   9   15.53    0.52
  -5  -6   9   17.41    0.60
   5   6  -8  101.07    1.66
   5   6  -8  102.91    1.69
   5   6  -8  105.02    1.72
  -5  -6   8  102.89    1.67
  -5  -6   8  101.56    1.61
   5   6  -7    1.54    0.29
  -5  -6   7    1.76    0.40
   5   6  -7    1.85    0.38
   5   6  -7    2.76    0.43
   5   6  -7    1.63    0.38
  -5  -6   7    2.06    0.39
  -5  -6   7    1.96    0.38
   5   6  -6   20.21    0.94
  -5  -6   6   18.87    0.91
   5   6  -6   18.43    0.83
   5   6  -6   19.08    0.87
   5   6  -6   19.54    0.92
  -5  -6   6   19.70    0.86
  -5  -6   6   19.37    0.81
  -5  -6   6   20.53    0.91
   5   6  -6   16.90    0.74
   5   6  -5   11.94    0.79
  -5  -6   5   11.29    0.77
   5   6  -5   10.99    0.71
   5   6  -5   11.55    0.75
   5   6  -5   11.23    0.78
  -5  -6   5   10.93    0.69
  -5  -6   5   11.23    0.70
  -5  -6   5   12.05    0.77
  -5  -6   5   11.30    0.66
   5   6  -5   10.57    0.65
   5   6  -4  170.01    2.96
  -5  -6   4  157.78    2.77
   5   6  -4  168.28    2.83
   5   6  -4  159.72    2.75
   5   6  -4  167.71    2.91
  -5  -6   4  151.83    2.52
  -5  -6   4  165.64    2.73
  -5  -6   4  172.25    2.87
  -5  -6   4  166.88    2.71
   5   6  -4  158.52    2.61
   5   6  -3  100.83    2.04
   5   6  -3  112.35    2.44
  -5  -6   3  105.32    2.23
   5   6  -3  109.75    2.33
   5   6  -3  107.17    2.26
   5   6  -3  110.76    2.40
  -5  -6   3  109.40    2.25
  -5  -6   3  112.36    2.34
  -5  -6   3  111.22    2.28
   5   6  -3  108.13    2.17
   5   6  -2   79.06    1.82
   5   6  -2   81.48    2.11
  -5  -6   2   76.46    1.87
   5   6  -2   80.70    2.03
   5   6  -2   78.57    1.93
  -5  -6   2   81.14    1.97
  -5  -6   2   81.76    2.01
  -5  -6   2   81.25    1.97
   5   6  -2   80.47    1.90
   5   6  -2   79.53    2.03
   5   6  -1    0.50    0.32
   5   6  -1    0.72    0.33
   5   6  -1    0.97    0.38
  -5  -6   1    0.83    0.36
   5   6  -1    0.96    0.35
   5   6  -1    0.81    0.39
  -5  -6   1    0.96    0.40
  -5  -6   1    1.49    0.43
  -5  -6   1    0.77    0.40
   5   6  -1    1.20    0.36
   5   6   0    1.90    0.42
   5   6   0    1.53    0.38
   5   6   0    1.49    0.40
   5   6   0    1.75    0.44
  -5  -6   0    1.24    0.41
  -5  -6   0    1.69    0.44
   5   6   0    1.69    0.35
  -5  -6   0    1.40    0.36
  -5  -6   0    1.80    0.44
   5   6   0    1.93    0.41
   5   6   1   12.96    0.90
   5   6   1   13.77    0.82
   5   6   1   13.38    0.88
  -5  -6  -1   13.22    0.84
   5   6   1   13.47    0.75
  -5  -6  -1   13.22    0.79
  -5  -6  -1   12.86    0.76
  -5  -6  -1   13.52    0.86
   5   6   1   13.62    0.88
   5   6   2  155.40    2.96
   5   6   2  156.03    2.75
   5   6   2  155.98    2.96
   5   6   2  149.94    2.58
   5   6   2  151.07    2.62
  -5  -6  -2  153.59    2.80
  -5  -6  -2  155.67    2.73
  -5  -6  -2  154.59    2.59
  -5  -6  -2  152.68    2.63
  -5  -6  -2  156.43    2.82
   5   6   2  150.08    2.91
   5   6   3    2.36    0.45
   5   6   3    2.77    0.50
   5   6   3    2.70    0.50
   5   6   3    2.35    0.43
   5   6   3    2.18    0.44
  -5  -6  -3    2.28    0.47
  -5  -6  -3    2.61    0.43
  -5  -6  -3    2.36    0.43
  -5  -6  -3    2.29    0.50
   5   6   3    1.80    0.41
   5   6   4   46.66    1.51
   5   6   4   42.61    1.54
   5   6   4   43.36    1.52
   5   6   4   40.91    1.38
  -5  -6  -4   44.15    1.45
  -5  -6  -4   44.43    1.42
  -5  -6  -4   42.53    1.41
  -5  -6  -4   43.57    1.42
   5   6   4   40.39    1.51
   5   6   5  457.23    5.27
   5   6   5  451.43    5.35
  -5  -6  -5  466.19    5.19
  -5  -6  -5  468.86    5.17
  -5  -6  -5  465.88    5.17
  -5  -6  -5  448.27    4.94
   5   6   5  467.58    5.59
   5   6   6 1039.40    8.99
  -5  -6  -6 1036.31    8.76
  -5  -6  -6 1048.59    8.57
  -5  -6  -6 1039.02    8.77
  -5  -6  -6 1054.16    8.80
  -5  -6  -6  990.65    8.26
  -5  -6  -6 1091.97    8.93
   5   6   6 1038.33    9.26
   5   6   7   63.96    1.83
  -5  -6  -7   65.09    1.57
  -5  -6  -7   65.30    1.54
  -5  -6  -7   65.64    1.75
  -5  -6  -7   64.67    1.70
  -5  -6  -7   63.74    1.75
  -5  -6  -7   67.02    1.78
   5   6   7   64.80    1.92
   5   6   8  151.02    2.85
   5   6   8  157.20    3.02
  -5  -6  -8  148.19    2.43
  -5  -6  -8  150.19    2.39
  -5  -6  -8  154.24    2.61
  -5  -6  -8  151.41    2.63
  -5  -6  -8  152.73    2.71
   5   6   8  150.95    2.90
  -5  -6  -8  157.51    2.72
  -5  -6  -9    7.73    0.62
   5   6   9    7.68    0.73
   5   6   9    6.92    0.73
  -5  -6  -9    8.33    0.59
  -5  -6  -9    7.00    0.55
  -5  -6  -9    8.29    0.64
  -5  -6  -9    7.97    0.67
  -5  -6  -9    7.11    0.66
   5   6   9    5.96    0.63
  -5  -6  -9    8.85    0.70
  -5  -6 -10   22.82    0.86
  -5  -6 -10   23.15    0.92
   5   6  10   23.21    1.07
   5   6  10   22.60    1.08
   5   6  10   24.10    1.02
  -5  -6 -10   21.32    0.85
  -5  -6 -10   22.73    0.87
   5   6  10   23.54    1.09
  -5  -6 -10   22.97    0.97
  -5  -6 -10   22.32    0.93
  -5  -6 -11   17.00    0.71
  -5  -6 -11   16.92    0.75
   5   6  11   17.20    0.89
   5   6  11   15.64    0.83
   5   6  11   18.15    0.83
   5   6  11   16.59    0.86
  -5  -6 -11   15.90    0.63
  -5  -6 -11   17.16    0.78
  -5  -6 -11   15.98    0.71
  -5  -6 -12  109.60    1.59
  -5  -6 -12  111.99    1.69
   5   6  12  114.37    1.97
  -5  -6 -12  110.88    1.52
   5   6  12  114.03    1.80
   5   6  12  110.84    1.86
  -5  -6 -13    3.54    0.30
  -5  -6 -13    3.82    0.34
   5   6  13    3.84    0.42
   5   6  13    3.73    0.38
   5   7  -8  116.35    1.46
  -5  -7   8  127.94    1.58
   5   7  -7   93.94    1.55
  -5  -7   7   96.61    1.60
   5   7  -7   88.12    1.37
  -5  -7   7   97.41    1.58
  -5  -7   7   93.61    1.46
  -5  -7   7   90.95    1.48
   5   7  -6    5.15    0.48
  -5  -7   6    5.81    0.52
   5   7  -6    4.42    0.41
   5   7  -6    4.84    0.41
  -5  -7   6    5.02    0.43
  -5  -7   6    4.59    0.40
  -5  -7   6    5.27    0.48
   5   7  -6    3.83    0.35
   5   7  -5    4.80    0.40
   5   7  -5    6.58    0.59
  -5  -7   5    6.69    0.59
   5   7  -5    6.45    0.52
   5   7  -5    6.03    0.49
  -5  -7   5    5.90    0.49
  -5  -7   5    6.17    0.51
  -5  -7   5    6.57    0.58
   5   7  -5    5.71    0.46
   5   7  -4   33.38    1.04
   5   7  -4   40.30    1.34
  -5  -7   4   37.92    1.26
   5   7  -4   37.62    1.23
   5   7  -4   35.42    1.13
  -5  -7   4   36.76    1.12
  -5  -7   4   36.46    1.18
  -5  -7   4   38.62    1.26
  -5  -7   4   38.69    1.15
   5   7  -4   35.55    1.13
   5   7  -3   26.44    1.00
   5   7  -3   30.73    1.23
  -5  -7   3   29.22    1.13
   5   7  -3   29.16    1.15
   5   7  -3   27.44    1.02
  -5  -7   3   26.90    0.97
  -5  -7   3   29.95    1.13
  -5  -7   3   30.65    1.20
  -5  -7   3   29.74    1.11
   5   7  -3   28.39    1.07
   5   7  -2   18.07    0.87
   5   7  -2   20.01    1.05
  -5  -7   2   18.42    0.91
   5   7  -2   19.53    0.99
   5   7  -2   17.45    0.86
  -5  -7   2   18.45    0.95
   5   7  -2   18.60    0.83
  -5  -7   2   19.80    0.96
   5   7  -2   19.81    0.94
   5   7  -1   73.72    1.76
   5   7  -1   76.91    1.99
  -5  -7   1   70.89    1.73
   5   7  -1   76.63    1.96
  -5  -7   1   77.02    1.92
   5   7  -1   70.76    1.66
  -5  -7   1   76.34    1.91
   5   7  -1   74.87    1.84
   5   7   0   13.50    0.89
   5   7   0   12.80    0.76
  -5  -7   0   11.33    0.71
   5   7   0   12.42    0.85
   5   7   0   11.64    0.71
   5   7   0   13.66    0.77
  -5  -7   0   13.38    0.85
   5   7   0   11.71    0.77
   5   7   1    0.06    0.32
   5   7   1    0.02    0.35
   5   7   1    0.08    0.42
  -5  -7  -1    0.01    0.33
   5   7   1    0.35    0.30
   5   7   1    0.40    0.33
  -5  -7  -1   -0.16    0.29
  -5  -7  -1   -0.02    0.43
   5   7   2    8.05    0.74
   5   7   2    9.09    0.69
   5   7   2    8.82    0.76
  -5  -7  -2    8.24    0.63
   5   7   2    8.58    0.65
   5   7   2    8.69    0.66
  -5  -7  -2    8.38    0.68
  -5  -7  -2    7.95    0.59
  -5  -7  -2    8.57    0.74
  -5  -7  -2    8.05    0.60
   5   7   3  173.58    2.93
   5   7   3  177.53    3.12
   5   7   3  171.37    2.83
  -5  -7  -3  175.26    2.89
  -5  -7  -3  172.34    2.72
  -5  -7  -3  173.17    2.77
  -5  -7  -3  177.72    3.00
  -5  -7  -3  175.16    2.79
   5   7   4   46.92    1.50
   5   7   4   45.19    1.57
   5   7   4   45.18    1.43
  -5  -7  -4   46.91    1.47
  -5  -7  -4   46.81    1.41
  -5  -7  -4   47.01    1.49
  -5  -7  -4   45.34    1.42
   5   7   4   45.10    1.55
   5   7   5   72.98    1.89
  -5  -7  -5   71.83    1.83
  -5  -7  -5   70.70    1.63
  -5  -7  -5   70.66    1.76
  -5  -7  -5   72.08    1.78
  -5  -7  -5   71.78    1.81
   5   7   5   70.89    1.93
   5   7   6    7.60    0.69
  -5  -7  -6    8.11    0.70
  -5  -7  -6    7.69    0.60
  -5  -7  -6    7.67    0.66
  -5  -7  -6    7.03    0.59
  -5  -7  -6    7.96    0.70
   5   7   6    7.12    0.66
   5   7   7   20.54    1.04
  -5  -7  -7   20.24    0.98
  -5  -7  -7   19.53    0.89
  -5  -7  -7   19.80    0.96
  -5  -7  -7   21.96    1.04
   5   7   7   20.86    1.02
  -5  -7  -8  115.45    1.94
   5   7   8  120.54    2.38
   5   7   8  115.00    2.37
  -5  -7  -8  119.16    2.22
  -5  -7  -8  116.24    2.13
  -5  -7  -8  115.21    2.21
   5   7   8  111.90    2.26
  -5  -7  -8  118.03    2.26
  -5  -7  -9  137.53    2.08
   5   7   9  142.22    2.52
   5   7   9  138.61    2.50
  -5  -7  -9  143.48    2.30
  -5  -7  -9  139.62    2.28
  -5  -7  -9  143.61    2.38
  -5  -7 -10   52.57    1.19
   5   7  10   53.57    1.48
   5   7  10   52.10    1.38
  -5  -7 -10   53.69    1.27
   5   7  10   55.12    1.44
  -5  -7 -10   52.08    1.30
  -5  -7 -10   53.34    1.33
  -5  -7 -11   -0.05    0.23
   5   7  11    0.19    0.34
   5   7  11    0.25    0.31
   5   7  11   -0.01    0.29
  -5  -7 -11    0.04    0.21
   5   7  12    6.02    0.50
   5   7  12    6.39    0.45
   5   7  12    5.35    0.40
   5   8  -6    6.46    0.44
  -5  -8   6    7.00    0.45
   5   8  -6    5.67    0.36
  -5  -8   6    6.97    0.45
   5   8  -5   19.75    0.59
   5   8  -5   27.95    0.88
  -5  -8   5   27.19    0.87
   5   8  -5   25.80    0.81
  -5  -8   5   27.93    0.90
   5   8  -5   22.23    0.70
   5   8  -4   66.27    1.29
   5   8  -4   78.02    1.61
  -5  -8   4   76.24    1.56
   5   8  -4   75.53    1.53
  -5  -8   4   80.63    1.65
  -5  -8   4   77.14    1.51
   5   8  -4   69.74    1.40
   5   8  -3   45.71    1.16
   5   8  -3   50.90    1.38
  -5  -8   3   49.42    1.31
   5   8  -3   49.46    1.33
  -5  -8   3   51.00    1.39
  -5  -8   3   48.16    1.29
   5   8  -3   42.56    1.04
  -5  -8   3   48.48    1.21
   5   8  -3   46.80    1.23
   5   8  -2  137.21    2.40
   5   8  -2  125.39    2.11
  -5  -8   2  129.40    2.21
   5   8  -2  137.11    2.38
  -5  -8   2  139.09    2.40
   5   8  -2  121.79    1.97
  -5  -8   2  133.94    2.24
   5   8  -2  132.20    2.23
   5   8  -1    4.44    0.55
   5   8  -1    3.55    0.45
  -5  -8   1    3.76    0.46
   5   8  -1    3.57    0.51
  -5  -8   1    4.09    0.55
   5   8  -1    3.48    0.41
   5   8  -1    3.65    0.41
  -5  -8   1    4.37    0.53
   5   8  -1    4.19    0.48
   5   8   0    0.62    0.31
   5   8   0    0.95    0.41
  -5  -8   0    0.88    0.32
   5   8   0    0.60    0.38
  -5  -8   0    0.70    0.35
   5   8   0    0.69    0.30
  -5  -8   0    1.01    0.41
   5   8   1   36.46    1.31
   5   8   1   36.18    1.22
   5   8   1   36.34    1.33
  -5  -8  -1   35.11    1.20
   5   8   1   35.18    1.15
   5   8   1   35.65    1.16
  -5  -8  -1   36.88    1.32
   5   8   2    6.65    0.60
   5   8   2    6.41    0.65
  -5  -8  -2    5.72    0.54
   5   8   2    6.43    0.57
   5   8   2    7.49    0.60
  -5  -8  -2    6.33    0.55
  -5  -8  -2    6.95    0.71
   5   8   3  468.77    5.02
   5   8   3  484.96    5.26
   5   8   3  472.14    4.88
  -5  -8  -3  467.12    4.89
  -5  -8  -3  486.39    5.17
  -5  -8  -3  466.40    4.69
   5   8   4   30.43    1.17
   5   8   4   29.93    1.22
   5   8   4   29.48    1.11
  -5  -8  -4   30.12    1.14
  -5  -8  -4   29.80    1.16
  -5  -8  -4   28.75    1.07
   5   8   4   30.02    1.15
   5   8   5   53.40    1.54
  -5  -8  -5   55.84    1.52
  -5  -8  -5   51.12    1.44
  -5  -8  -5   50.77    1.44
   5   8   5   53.20    1.49
   5   8   6    0.12    0.28
   5   8   6    0.62    0.41
  -5  -8  -6    0.30    0.38
  -5  -8  -6   -0.01    0.33
  -5  -8  -6    0.09    0.29
   5   8   7    6.11    0.59
  -5  -8  -7    6.42    0.61
  -5  -8  -7    6.12    0.47
  -5  -8  -7    5.86    0.48
  -5  -8  -7    6.65    0.60
   5   8   8  138.85    2.37
   5   8   8  135.32    2.28
  -5  -8  -8  142.24    2.30
  -5  -8  -8  138.00    2.27
   5   8   9   42.69    1.24
  -5  -8  -9   42.66    1.14
   5   8  10   23.94    0.88
   5   8  10   24.86    0.84
   5   8  10   24.00    0.81
  -5  -8 -10   24.82    0.79
   5   8  11   28.93    0.86
   5   8  11   29.42    0.80
  -5  -8 -11   28.69    0.67
   5   9  -4   10.21    0.49
  -5  -9   4    9.81    0.47
   5   9  -4    9.61    0.47
  -5  -9   4   10.17    0.51
   5   9  -3   36.69    0.95
  -5  -9   3   35.06    0.90
   5   9  -3   35.37    0.93
  -5  -9   3   37.99    1.00
   5   9  -2   36.25    1.01
   5   9  -2   33.63    0.89
  -5  -9   2   33.18    0.92
   5   9  -2   35.10    1.01
  -5  -9   2   37.16    1.05
  -5  -9   2   36.63    0.92
   5   9  -1    8.52    0.56
   5   9  -1    8.36    0.53
  -5  -9   1    8.47    0.50
   5   9  -1    9.00    0.59
  -5  -9   1    9.34    0.60
   5   9  -1    8.33    0.47
   5   9  -1    7.52    0.44
  -5  -9   1    9.01    0.55
   5   9   0   10.90    0.63
   5   9   0   10.23    0.60
  -5  -9   0    9.91    0.54
   5   9   0   10.57    0.66
  -5  -9   0   10.44    0.63
   5   9   0   10.82    0.56
   5   9   0   10.76    0.56
  -5  -9   0   11.47    0.65
   5   9   1   63.33    1.45
   5   9   1   66.26    1.54
  -5  -9  -1   62.51    1.43
   5   9   1   60.87    1.33
  -5  -9  -1   67.02    1.56
   5   9   2  276.88    3.29
   5   9   2  281.77    3.44
  -5  -9  -2  263.37    3.07
   5   9   2  269.64    3.13
  -5  -9  -2  281.35    3.45
   5   9   2  274.56    3.23
   5   9   3   93.97    1.85
   5   9   3   87.24    1.81
   5   9   3   84.00    1.66
  -5  -9  -3   89.07    1.64
  -5  -9  -3   88.49    1.83
   5   9   3   82.14    1.63
   5   9   4   15.67    0.78
  -5  -9  -4   15.72    0.74
  -5  -9  -4   15.86    0.81
   5   9   5   85.34    1.74
  -5  -9  -5   84.84    1.67
  -5  -9  -5   82.85    1.66
   5   9   6  127.31    2.12
  -5  -9  -6  126.61    2.05
  -5  -9  -6  122.47    1.93
   5   9   7    0.32    0.33
   5   9   7    0.25    0.24
  -5  -9  -7    0.61    0.33
  -5  -9  -7    0.36    0.24
   5   9   8    8.93    0.57
  -5  -9  -8    9.54    0.55
   5   9   9  180.94    2.23
  -5  -9  -9  182.51    2.13
   5   9  10   20.17    0.66
  -5  -9 -10   19.71    0.58
   5  10  -1    9.26    0.42
   5  10  -1   10.74    0.48
  -5 -10   1   10.05    0.47
   5  10   0    1.70    0.30
   5  10   0    2.39    0.33
  -5 -10   0    1.63    0.30
   5  10   1    3.83    0.37
   5  10   1    4.31    0.39
  -5 -10  -1    4.08    0.39
   5  10   2    1.53    0.31
  -5 -10  -2    1.16    0.32
   5  10   3   20.75    0.72
  -5 -10  -3   20.70    0.74
   5  10   4    4.42    0.41
  -5 -10  -4    4.29    0.31
  -5 -10  -4    4.59    0.43
   5  10   5    5.68    0.43
  -5 -10  -5    4.93    0.37
  -5 -10  -5    5.35    0.42
   5  10   6    1.04    0.31
  -5 -10  -6    0.97    0.28
  -5 -10  -6    0.67    0.26
   5  10   7   18.72    0.64
  -5 -10  -7   17.96    0.60
   6  -8  -4   23.78    0.57
   6  -8  -3  472.42    3.43
   6  -8  -2   61.56    0.90
   6  -7  -7   63.94    0.87
  -6   7   7   68.14    0.74
   6  -7  -7   66.59    0.93
   6  -7  -7   84.32    1.11
  -6   7   7   85.38    1.06
   6  -7  -6   28.44    0.69
   6  -7  -6   29.98    0.76
   6  -7  -5   -0.28    0.26
   6  -7  -5   -0.14    0.28
   6  -7  -4   -0.09    0.28
   6  -7  -4    0.55    0.28
   6  -7  -3  117.63    1.56
   6  -7  -3  114.28    1.63
   6  -7  -2    1.16    0.33
   6  -7  -2    0.92    0.29
   6  -7  -2    1.04    0.34
   6  -7  -2    0.87    0.30
   6  -7  -1   41.90    0.94
   6  -7  -1   41.97    1.21
   6  -7  -1   34.29    0.85
   6  -7  -1   36.36    0.93
   6  -7  -1   33.41    0.86
   6  -7   0    5.67    0.38
   6  -7   0    5.63    0.41
   6  -7   1    0.89    0.29
   6  -7   2   44.40    0.91
   6  -6  -9  112.36    1.25
  -6   6   9  112.86    1.17
   6  -6  -8   41.92    0.73
   6  -6  -8   43.79    0.82
   6  -6  -7  110.75    1.36
   6  -6  -7   70.48    1.18
  -6   6   7  107.29    1.12
  -6   6   7   77.14    1.34
   6  -6  -6   86.20    1.23
   6  -6  -6    2.01    0.31
   6  -6  -5    1.46    0.28
  -6   6   5    1.20    0.31
   6  -6  -4    2.84    0.37
   6  -6  -4    3.48    0.42
   6  -6  -3   37.58    1.00
   6  -6  -3   39.93    1.09
   6  -6  -2    7.13    0.49
   6  -6  -2    8.43    0.59
   6  -6  -1    7.26    0.53
   6  -6  -1    8.36    0.62
   6  -6  -1    9.12    0.64
   6  -6   0  415.29    3.83
   6  -6   0  426.69    3.80
   6  -6   0  440.38    4.19
   6  -6   0  453.34    4.18
   6  -6   0  404.37    3.94
   6  -6   1    5.42    0.48
   6  -6   1    5.96    0.54
   6  -6   1    5.77    0.41
   6  -6   1    5.56    0.53
   6  -6   2    0.38    0.30
   6  -6   2    0.35    0.26
   6  -6   2    0.32    0.27
   6  -6   2    0.13    0.36
   6  -6   3  273.32    2.63
   6  -6   3  289.81    2.96
   6  -6   4  125.07    1.57
   6  -6   4  131.41    1.80
   6  -6   5  159.37    1.86
   6  -6   6    2.07    0.31
   6  -5 -10    2.00    0.28
  -6   5  10    1.79    0.31
  -6   5  10    1.23    0.25
  -6   5  10    1.85    0.32
   6  -5  -9   19.66    0.49
   6  -5  -9   26.89    0.69
  -6   5   9   22.95    0.59
  -6   5   9   23.01    0.53
   6  -5  -9   20.88    0.52
  -6   5   9   28.80    0.76
   6  -5  -8   13.20    0.69
   6  -5  -8   15.70    0.61
  -6   5   8   12.33    0.60
   6  -5  -8   20.89    0.67
  -6   5   8   17.93    0.71
   6  -5  -7  189.88    2.02
  -6   5   7  137.26    2.17
   6  -5  -7  171.51    2.08
  -6   5   7  172.22    1.68
  -6   5   7  146.57    2.16
  -6   5   7  176.14    2.28
   6  -5  -6   15.08    0.66
  -6   5   6   13.30    0.69
   6  -5  -5   56.05    1.19
  -6   5   5   49.64    1.27
   6  -5  -4   21.93    0.74
  -6   5   4   20.08    0.83
  -6   5   3    1.93    0.36
   6  -5  -3    2.55    0.43
   6  -5  -2   72.64    1.46
   6  -5  -2   75.92    1.60
   6  -5  -1   59.60    1.33
  -6   5   1   47.86    1.28
   6  -5  -1   64.38    1.48
   6  -5  -1   43.46    1.47
   6  -5   0   54.18    1.24
   6  -5   0   53.86    1.52
   6  -5   0   58.29    1.50
   6  -5   0   60.88    1.44
   6  -5   1  153.08    2.12
   6  -5   1  188.65    2.50
   6  -5   1  161.36    2.49
   6  -5   1  166.66    2.43
   6  -5   1  133.19    2.37
   6  -5   1  136.00    2.16
   6  -5   2   41.44    1.22
   6  -5   2   41.10    1.19
   6  -5   2   39.72    1.22
   6  -5   3  349.07    3.72
   6  -5   3  352.03    3.79
   6  -5   4  279.49    3.01
   6  -5   4  273.11    3.21
   6  -5   5  263.07    2.78
   6  -5   5  262.20    2.98
   6  -5   5  270.22    2.97
   6  -5   6    5.36    0.37
   6  -5   6    6.29    0.44
   6  -5   6    6.24    0.51
   6  -5   7    0.14    0.20
   6  -5   7    0.32    0.33
  -6   4  11   12.30    0.46
  -6   4  11   12.87    0.46
   6  -4 -10    4.82    0.46
   6  -4 -10    4.25    0.35
  -6   4  10    4.20    0.32
  -6   4  10    4.69    0.42
  -6   4  10    3.52    0.31
  -6   4  10    5.12    0.42
   6  -4  -9   19.49    0.55
   6  -4  -9   22.47    0.89
   6  -4  -9   22.94    0.71
  -6   4   9   19.58    0.65
  -6   4   9   20.28    0.60
  -6   4   9   20.03    0.72
   6  -4  -9   19.50    0.56
  -6   4   9   22.02    0.75
   6  -4  -8  174.00    1.93
   6  -4  -8  169.79    2.62
  -6   4   8  142.08    2.14
   6  -4  -8  178.23    2.12
  -6   4   8  153.00    2.03
  -6   4   8  142.52    1.68
   6  -4  -8  165.06    2.55
  -6   4   8  159.19    2.22
   6  -4  -8  166.52    1.97
  -6   4   8  173.36    2.26
   6  -4  -7    0.10    0.39
  -6   4   7    0.31    0.39
   6  -4  -7    0.63    0.37
  -6   4   7   -0.09    0.38
   6  -4  -7    0.86    0.48
   6  -4  -6   91.29    1.62
   6  -4  -6   45.66    1.49
  -6   4   6   40.22    1.30
   6  -4  -6   46.67    1.19
  -6   4   6  101.21    1.23
  -6   4   6   41.21    1.25
   6  -4  -5   10.29    0.79
   6  -4  -5   10.87    0.62
  -6   4   5    9.60    0.67
  -6   4   4    6.28    1.14
   6  -4  -4    8.39    0.56
  -6   4   4    7.44    0.60
  -6   4   3    9.32    1.36
   6  -4  -3    8.14    0.51
  -6   4   3    7.72    0.58
   6  -4  -2   10.48    0.75
   6  -4  -2   10.22    0.66
  -6   4   1   14.21    0.79
  -6   4   1   16.31    1.60
  -6   4   1    2.25    1.29
   6  -4  -1   18.09    0.83
   6  -4  -1    1.28    1.15
  -6   4   0   17.93    1.74
   6  -4   0   11.81    1.18
   6  -4   1   -0.04    0.27
   6  -4   1    0.09    0.38
   6  -4   1    0.25    0.38
   6  -4   1   -0.25    0.34
   6  -4   2   16.51    0.86
   6  -4   2   17.07    0.89
   6  -4   2   16.78    0.83
   6  -4   2   14.93    0.81
   6  -4   3   47.84    1.37
   6  -4   3   45.76    1.37
   6  -4   3   47.25    1.37
   6  -4   4  288.36    3.48
   6  -4   4  286.17    3.59
   6  -4   4  296.26    3.51
   6  -4   5   17.16    0.72
   6  -4   5   18.56    0.80
   6  -4   5   19.10    0.92
   6  -4   5   19.85    0.87
   6  -4   6   15.58    0.66
   6  -4   6   17.70    0.77
   6  -4   6   18.88    0.86
   6  -4   6   17.77    0.79
   6  -4   7    9.49    0.50
   6  -4   7   10.88    0.58
   6  -4   7   11.04    0.63
   6  -4   8   51.29    1.02
   6  -4   8   50.40    0.96
   6  -4   9   55.85    0.92
  -6   3  11   27.70    0.65
   6  -3 -11   26.41    0.58
   6  -3 -10   19.00    0.79
   6  -3 -10   18.72    0.59
  -6   3  10   17.13    0.61
  -6   3  10   17.75    0.71
   6  -3 -10   16.97    0.64
  -6   3  10   15.48    0.53
  -6   3  10   19.02    0.69
   6  -3  -9   43.67    0.87
   6  -3  -9   49.84    1.36
   6  -3  -9   52.52    1.09
  -6   3   9   44.66    1.05
  -6   3   9   48.02    1.23
   6  -3  -9   44.89    1.18
  -6   3   9   36.73    0.84
   6  -3  -9   48.19    1.29
  -6   3   9   45.60    1.13
   6  -3  -9   44.04    0.89
  -6   3   9   48.85    1.16
   6  -3  -8  154.91    1.88
   6  -3  -8  157.88    2.64
  -6   3   8  132.08    2.11
   6  -3  -8  168.71    2.12
  -6   3   8  141.28    2.03
   6  -3  -8  147.32    2.40
   6  -3  -8  152.95    2.52
  -6   3   8  146.46    2.23
   6  -3  -8  148.83    1.91
  -6   3   8  154.44    2.23
   6  -3  -7   69.94    1.33
   6  -3  -7   55.26    1.65
  -6   3   7   50.93    1.37
   6  -3  -7   64.03    1.37
   6  -3  -7   54.70    1.53
  -6   3   7   63.81    1.04
   6  -3  -7   55.91    1.61
  -6   3   7   55.85    1.43
   6  -3  -7   62.90    1.36
  -6   3   7   60.65    1.45
   6  -3  -6    2.30    0.53
  -6   3   6    1.90    0.49
   6  -3  -6    1.70    0.42
   6  -3  -6    2.09    0.42
  -6   3   6    1.89    0.47
   6  -3  -6    2.12    0.55
   6  -3  -5   47.07    1.22
   6  -3  -5    7.13    0.73
  -6   3   5    5.03    0.62
  -6   3   5    6.25    1.09
   6  -3  -5    6.12    0.54
   6  -3  -5    5.61    0.61
   6  -3  -5    9.12    0.72
  -6   3   5    6.18    0.61
   6  -3  -4    0.12    0.43
  -6   3   4   -0.62    0.52
  -6   3   4   -0.10    0.71
   6  -3  -4    0.31    0.32
   6  -3  -4    0.47    0.38
   6  -3  -4    0.27    0.30
  -6   3   4   -0.19    0.38
  -6   3   3    7.81    0.69
  -6   3   3    8.27    1.31
   6  -3  -3    7.82    0.55
   6  -3  -3    9.69    0.77
   6  -3  -3    9.79    0.76
  -6   3   3    7.73    0.61
   6  -3  -2   55.29    1.60
  -6   3   2   53.10    1.51
  -6   3   2   52.73    2.80
   6  -3  -2   56.36    1.71
  -6   3   2   51.19    1.33
   6  -3  -2   58.29    1.79
   6  -3  -1   44.93    1.46
  -6   3   1   40.21    1.28
  -6   3   1   39.78    2.43
   6  -3  -1   45.92    1.61
   6  -3  -1   43.71    1.51
   6  -3  -1   44.49    1.23
   6  -3   0   29.89    1.20
  -6   3   0   24.19    0.98
  -6   3   0   26.24    1.94
   6  -3   0   27.28    1.27
  -6   3   0   19.77    1.72
   6  -3   0   29.65    1.02
   6  -3   0   14.77    1.14
   6  -3   1  160.56    2.86
   6  -3   1  158.78    2.46
   6  -3   2  118.94    2.42
   6  -3   2  117.42    2.28
   6  -3   2  120.33    2.12
   6  -3   3    0.52    0.38
   6  -3   3    0.87    0.34
  -6   3  -3    0.47    0.67
   6  -3   3    0.85    0.41
   6  -3   3    0.81    0.40
   6  -3   4   24.23    1.03
   6  -3   4   26.34    1.05
   6  -3   4   25.32    1.02
   6  -3   5   11.72    0.76
   6  -3   5   11.90    0.75
   6  -3   5   11.79    0.80
   6  -3   5   11.85    0.72
   6  -3   6    7.89    0.55
   6  -3   6    8.37    0.62
   6  -3   6    8.08    0.61
   6  -3   7   12.59    0.64
   6  -3   7   14.98    0.74
   6  -3   7   15.84    0.81
   6  -3   7   13.11    0.69
   6  -3   8    8.17    0.50
   6  -3   8    8.21    0.54
   6  -3   8    8.97    0.60
   6  -3   9    3.75    0.43
   6  -3   9    3.03    0.33
   6  -3   9    3.87    0.40
   6  -3  10   18.34    0.60
   6  -2 -11   13.75    0.60
   6  -2 -11   13.21    0.43
  -6   2  11   13.41    0.50
  -6   2  11   14.46    0.56
   6  -2 -11   14.25    0.58
   6  -2 -10   11.22    0.64
  -6   2  10   10.12    0.51
  -6   2  10   10.64    0.58
   6  -2 -10   10.50    0.60
   6  -2 -10   11.48    0.51
  -6   2  10   11.51    0.59
   6  -2  -9   14.90    0.81
  -6   2   9   11.61    0.59
   6  -2  -9   16.22    0.64
  -6   2   9   14.46    0.65
  -6   2   9   15.01    0.76
  -6   2   9   12.07    0.54
   6  -2  -9   14.51    0.78
   6  -2  -9   13.87    0.73
  -6   2   9   14.82    0.68
   6  -2  -9   13.40    0.54
  -6   2   9   15.58    0.74
   6  -2  -8    1.52    0.32
   6  -2  -8    1.58    0.49
  -6   2   8    1.57    0.36
   6  -2  -8    1.40    0.40
  -6   2   8    1.77    0.33
  -6   2   8    1.80    0.48
  -6   2   8    1.64    0.33
   6  -2  -8    1.34    0.41
  -6   2   8    1.78    0.41
   6  -2  -8    1.80    0.32
   6  -2  -8    2.27    0.47
  -6   2   8    1.49    0.45
   6  -2  -7  119.43    1.78
   6  -2  -7  122.10    2.47
  -6   2   7  114.11    2.06
   6  -2  -7  121.34    2.45
  -6   2   7  121.82    2.14
   6  -2  -7  119.00    2.35
   6  -2  -7  120.49    1.86
  -6   2   7  121.81    2.09
   6  -2  -6  210.78    2.52
   6  -2  -6  219.46    3.49
  -6   2   6  208.73    3.00
  -6   2   6  201.51    5.32
   6  -2  -6  224.20    2.74
   6  -2  -6  216.14    3.43
   6  -2  -6  217.92    3.31
  -6   2   6  221.36    3.03
   6  -2  -6  196.42    2.61
  -6   2   6  221.11    2.90
   6  -2  -5   16.85    0.80
   6  -2  -5   13.87    0.93
  -6   2   5   17.24    0.92
  -6   2   5   16.95    1.63
   6  -2  -5   16.67    0.78
   6  -2  -5   13.10    0.90
  -6   2   5   12.12    1.94
   6  -2  -5   14.31    0.94
  -6   2   5   13.28    0.84
  -6   2   5   17.72    0.90
   6  -2  -4   25.04    1.08
   6  -2  -4   20.21    1.12
  -6   2   4   20.38    1.02
  -6   2   4   18.98    1.76
   6  -2  -4   18.51    0.82
   6  -2  -4   23.51    1.18
  -6   2   4   18.74    0.94
  -6   2   4   20.68    0.92
   6  -2  -3    6.14    0.72
  -6   2   3    5.64    0.64
  -6   2   3    6.12    1.19
   6  -2  -3    5.09    0.50
   6  -2  -3    5.42    0.65
  -6   2   3    5.69    0.59
  -6   2   2  280.97    3.64
  -6   2   2  276.91    6.41
   6  -2  -2  259.17    3.04
   6  -2  -2  286.77    4.21
   6  -2  -2  276.83    4.14
  -6   2   2  261.06    6.10
  -6   2   2  267.42    3.30
  -6   2   1  140.52    4.85
  -6   2   1  148.15    2.47
  -6   2   1  143.87    4.54
   6  -2  -1  153.79    3.04
   6  -2  -1  151.63    2.98
  -6   2   1  140.43    4.48
   6  -2  -1  148.84    2.22
   6  -2   0   12.25    0.82
  -6   2   0   12.55    1.52
  -6   2   0   12.96    0.75
  -6   2   0   12.02    1.40
   6  -2   0   12.83    0.91
   6  -2   0   11.74    0.86
   6  -2   0   12.55    0.66
   6  -2   1    0.53    0.36
  -6   2  -1    0.45    0.31
  -6   2  -1    0.67    0.69
   6  -2   1    0.19    0.41
   6  -2   1    0.21    0.28
   6  -2   2    1.06    0.40
  -6   2  -2    0.94    0.68
   6  -2   2    0.97    0.45
  -6   2  -2   -0.22    0.94
   6  -2   2    1.09    0.42
   6  -2   2    1.28    0.37
  -6   2  -3   90.73    3.74
   6  -2   3   89.03    2.02
  -6   2  -3   93.78    3.46
  -6   2  -3   92.54    3.84
   6  -2   3   97.75    2.04
   6  -2   4    2.74    0.50
   6  -2   4    2.48    0.48
   6  -2   4    2.39    0.47
  -6   2  -4    2.48    0.89
   6  -2   4    2.60    0.45
   6  -2   5   22.32    1.11
   6  -2   5   21.11    1.04
   6  -2   5   21.09    0.97
   6  -2   5   22.42    0.93
   6  -2   6    2.13    0.47
   6  -2   6    2.54    0.42
   6  -2   7    0.70    0.43
   6  -2   7    0.19    0.37
   6  -2   7    0.01    0.43
   6  -2   7   -0.02    0.34
   6  -2   8    1.49    0.43
   6  -2   8    1.52    0.36
   6  -2   8    1.89    0.41
   6  -2   8    1.93    0.45
   6  -2   9    3.21    0.38
   6  -2   9    3.74    0.41
   6  -2   9    4.10    0.46
   6  -2  10    3.66    0.45
   6  -2  10    3.31    0.34
   6  -2  10    3.38    0.34
   6  -2  11   12.78    0.50
   6  -1 -11   22.37    0.69
  -6   1  11   21.70    0.64
  -6   1  11   23.68    0.69
   6  -1 -11   23.54    0.79
   6  -1 -10    2.69    0.39
  -6   1  10    2.01    0.31
  -6   1  10    2.52    0.39
   6  -1 -10    2.57    0.41
   6  -1 -10    2.51    0.32
   6  -1  -9    1.94    0.42
   6  -1  -9    1.86    0.36
  -6   1   9    1.36    0.31
  -6   1   9    1.77    0.43
   6  -1  -9    1.65    0.43
   6  -1  -9    1.20    0.26
  -6   1   9    1.29    0.44
   6  -1  -8   16.28    0.65
   6  -1  -8   19.80    0.98
  -6   1   8   16.91    0.79
   6  -1  -8   21.74    0.79
  -6   1   8   17.74    0.76
  -6   1   8   19.24    0.94
  -6   1   8   15.27    0.64
   6  -1  -8   19.52    1.00
   6  -1  -8   17.04    0.84
  -6   1   8   19.92    0.86
   6  -1  -8   18.53    0.69
  -6   1   8   19.56    0.88
   6  -1  -7   42.94    1.08
   6  -1  -7   45.76    1.50
  -6   1   7   40.76    1.23
   6  -1  -7   47.44    1.19
  -6   1   7   44.36    1.37
   6  -1  -7   45.65    1.57
   6  -1  -7   42.72    1.36
  -6   1   7   43.84    1.30
   6  -1  -7   45.75    1.13
  -6   1   7   43.24    1.27
   6  -1  -6    0.64    0.36
   6  -1  -6    0.80    0.47
  -6   1   6    1.17    0.42
   6  -1  -6    0.89    0.39
  -6   1   6    1.42    0.32
   6  -1  -6    0.83    0.43
  -6   1   6    0.92    0.44
   6  -1  -6    1.34    0.39
   6  -1  -6    1.45    0.45
  -6   1   6    0.34    0.43
   6  -1  -5  116.38    1.90
   6  -1  -5  121.78    2.59
  -6   1   5  126.16    2.31
  -6   1   5  121.17    4.18
   6  -1  -5  130.13    2.05
   6  -1  -5  123.43    2.68
  -6   1   5  124.46    4.31
  -6   1   5  125.72    2.25
   6  -1  -5  116.26    2.00
  -6   1   5  121.56    2.13
   6  -1  -5  123.27    2.60
   6  -1  -4  137.40    2.20
   6  -1  -4  155.19    2.97
  -6   1   4  161.19    2.68
  -6   1   4  158.33    4.84
   6  -1  -4  155.00    2.29
   6  -1  -4  154.14    3.08
  -6   1   4  174.07    4.87
  -6   1   4  155.26    2.51
   6  -1  -4  144.20    2.26
  -6   1   4  147.69    2.35
   6  -1  -4  155.86    2.98
   6  -1  -3    8.75    0.61
   6  -1  -3   10.66    0.86
  -6   1   3    8.81    1.23
  -6   1   3   11.33    0.80
  -6   1   3   10.80    1.45
   6  -1  -3    9.69    0.62
   6  -1  -3    9.67    0.82
  -6   1   3    9.11    0.67
   6  -1  -3    8.70    0.75
  -6   1   2 1766.09   19.18
  -6   1   2 1884.12   12.88
  -6   1   2 1857.93   18.69
   6  -1  -2 1813.48   11.91
   6  -1  -2 1909.59   14.01
  -6   1   2 1854.35   18.21
  -6   1   2 1873.29   12.35
   6  -1  -2 1920.25   13.99
   6  -1  -1   69.73    2.02
   6  -1  -1   66.41    1.43
  -6   1   1   70.04    3.37
  -6   1   1   70.86    1.69
  -6   1   1   67.86    3.15
   6  -1  -1   65.73    1.37
   6  -1  -1   66.54    1.99
  -6   1   1   66.13    1.48
   6  -1  -1   71.68    2.03
  -6   1   0   43.60    2.68
  -6   1   0   42.65    1.28
   6  -1   0   44.97    1.60
   6  -1   0   44.54    1.63
   6  -1   0   43.26    1.61
  -6   1   0   49.90    2.76
   6  -1   0   43.33    1.59
   6  -1   1   47.51    1.56
   6  -1   1   55.73    1.23
  -6   1  -1   47.09    2.78
  -6   1  -1   45.86    1.29
   6  -1   1   50.00    1.73
   6  -1   1   47.64    1.70
   6  -1   1   44.31    1.64
  -6   1  -1   56.58    2.82
   6  -1   1   53.32    1.26
   6  -1   1   47.79    1.72
   6  -1   2  126.14    2.59
  -6   1  -2  122.91    4.38
   6  -1   2  122.23    2.76
  -6   1  -2  125.24    4.56
   6  -1   2  120.32    2.75
  -6   1  -2  133.48    4.28
   6  -1   2  122.72    2.23
   6  -1   2  115.34    2.73
   6  -1   3  531.00    5.82
   6  -1   3  506.76    6.19
  -6   1  -3  528.17    9.43
  -6   1  -3  515.44    8.42
  -6   1  -3  503.25    9.15
   6  -1   3  512.11    5.14
   6  -1   4  184.69    3.19
  -6   1  -4  168.90    5.10
   6  -1   4  176.79    3.02
  -6   1  -4  174.83    5.23
   6  -1   4  181.14    2.76
   6  -1   5   20.71    1.08
  -6   1  -5   20.09    1.94
   6  -1   5   21.27    1.06
  -6   1  -5   17.79    1.73
   6  -1   5   20.45    0.93
   6  -1   5   19.93    0.86
   6  -1   6    3.60    0.57
   6  -1   6    2.83    0.41
   6  -1   7   76.73    1.92
  -6   1  -7   77.22    1.69
   6  -1   7   68.35    1.55
   6  -1   7   72.38    1.56
   6  -1   7   70.92    1.51
   6  -1   8    4.69    0.60
  -6   1  -8    4.63    0.43
   6  -1   8    3.95    0.45
   6  -1   8    3.64    0.46
   6  -1   9   53.02    1.44
  -6   1  -9   50.19    1.15
   6  -1   9   48.30    1.20
   6  -1   9   47.13    1.14
   6  -1   9   51.26    1.27
   6  -1  10  394.17    3.59
   6  -1  10  400.52    3.52
   6  -1  11    1.91    0.38
   6  -1  11    1.78    0.29
  -6   0  11    3.57    0.32
  -6   0  11    3.67    0.36
   6   0 -11    3.62    0.41
   6   0 -11    2.70    0.28
   6   0 -10   32.39    0.90
  -6   0  10   31.82    0.88
  -6   0  10   34.93    0.97
   6   0 -10   34.89    1.12
   6   0  -9    1.45    0.36
   6   0  -9    1.26    0.33
  -6   0   9    1.18    0.30
  -6   0   9    1.49    0.41
   6   0  -9    1.78    0.43
  -6   0   9    1.29    0.29
   6   0  -8    1.69    0.40
  -6   0   8    1.87    0.37
   6   0  -8    1.83    0.40
  -6   0   8    1.99    0.36
  -6   0   8    2.40    0.48
   6   0  -8    1.90    0.49
   6   0  -8    2.92    0.37
  -6   0   8    1.25    0.45
   6   0  -7   43.93    1.42
   6   0  -7   41.01    1.28
  -6   0   7   39.76    1.23
   6   0  -7   46.11    1.17
  -6   0   7   40.11    1.15
  -6   0   7   42.98    1.36
   6   0  -7   42.93    1.55
  -6   0   7   43.61    1.28
   6   0  -7   44.12    1.10
  -6   0   7   41.45    1.24
   6   0  -6   -0.03    0.38
   6   0  -6    0.70    0.44
   6   0  -6    0.57    0.31
  -6   0   6    0.28    0.36
   6   0  -6    0.65    0.37
  -6   0   6    0.52    0.43
  -6   0   6   -0.07    0.30
   6   0  -6    0.36    0.41
  -6   0   6    0.38    0.43
   6   0  -6    0.19    0.34
  -6   0   6   -0.05    0.47
   6   0  -5    6.81    0.56
   6   0  -5    6.67    0.70
   6   0  -5    6.43    0.62
  -6   0   5    7.15    0.66
   6   0  -5    8.37    0.60
  -6   0   5    8.07    0.70
   6   0  -5    7.22    0.75
  -6   0   5    7.97    0.68
   6   0  -5    7.05    0.58
  -6   0   5    6.75    0.60
   6   0  -4  735.79    6.07
   6   0  -4  749.09    7.35
   6   0  -4  736.73    7.15
  -6   0   4  812.55    6.89
   6   0  -4  764.38    6.23
  -6   0   4  772.38    6.77
   6   0  -4  785.85    7.76
  -6   0   4  767.08   10.40
  -6   0   4  787.53    6.67
   6   0  -4  757.76    6.24
  -6   0   4  758.40    6.39
   6   0  -3 1850.73   12.65
   6   0  -3 1996.35   14.52
  -6   0   3 1838.55   19.43
  -6   0   3 2077.49   13.76
   6   0  -3 1991.67   12.87
  -6   0   3 1960.93   13.45
   6   0  -3 1999.95   14.88
  -6   0   3 2030.22   18.89
  -6   0   3 2001.10   13.33
   6   0  -3 1897.22   12.85
   6   0  -3 2053.91   15.05
   6   0  -2  132.10    2.05
  -6   0   2  142.45    4.68
  -6   0   2  155.07    2.57
   6   0  -2  141.35    2.13
  -6   0   2  144.57    2.35
   6   0  -2  152.35    3.01
  -6   0   2  144.86    2.32
   6   0  -2  135.77    2.14
   6   0  -2  150.73    3.03
   6   0  -1  236.90    2.83
  -6   0   1  267.13    6.53
  -6   0   1  272.51    3.45
   6   0  -1  259.60    2.94
   6   0  -1  265.92    4.07
  -6   0   1  264.60    3.14
   6   0  -1  239.77    2.95
   6   0  -1  269.14    4.19
   6   0   0   49.00    1.16
   6   0   0   50.32    3.16
  -6   0   0   53.85    2.91
  -6   0   0   56.83    1.47
  -6   0   0   54.25    3.13
   6   0   0   58.63    1.87
   6   0   0   54.90    1.80
   6   0   0   54.21    1.79
   6   0   0   49.53    1.22
   6   0   0   58.07    1.89
   6   0   1  113.13    1.77
   6   0   1  120.75    4.87
  -6   0  -1  132.95    4.53
  -6   0  -1  129.36    2.20
  -6   0  -1  134.12    4.84
   6   0   1  135.64    2.89
   6   0   1  132.17    2.82
   6   0   1  126.71    2.75
   6   0   1  113.96    1.84
   6   0   1  132.90    2.91
   6   0   2  117.44    2.48
  -6   0  -2  121.75    4.36
  -6   0  -2  113.63    2.01
  -6   0  -2  119.78    4.54
   6   0   2  118.24    2.77
   6   0   2  115.36    2.66
  -6   0  -2  112.05    4.09
   6   0   2  114.91    2.07
   6   0   2  112.69    2.73
  -6   0  -3   18.90    1.77
   6   0   3   18.08    1.11
  -6   0  -3   16.90    1.80
   6   0   3   16.09    1.04
  -6   0  -3   16.83    1.67
   6   0   3   17.45    0.81
   6   0   3   17.77    1.03
   6   0   3   17.76    1.12
   6   0   4   50.35    1.62
   6   0   4   47.13    1.83
  -6   0  -4   47.76    2.80
  -6   0  -4   45.43    2.63
   6   0   4   47.99    1.34
   6   0   4   50.65    1.74
   6   0   5   54.77    1.70
  -6   0  -5   49.82    2.77
   6   0   5   54.33    1.77
  -6   0  -5   55.44    3.18
  -6   0  -5   51.37    2.82
   6   0   5   51.38    1.81
   6   0   5   51.85    1.40
  -6   0  -5   49.88    1.41
   6   0   6   23.68    1.14
   6   0   6   22.62    1.19
  -6   0  -6   22.92    2.11
   6   0   6   22.01    1.22
   6   0   7  114.79    2.40
  -6   0  -7  112.83    2.19
   6   0   7  108.35    2.39
   6   0   7  108.97    1.88
   6   0   8   18.74    1.00
  -6   0  -8   19.16    0.86
   6   0   8   16.81    0.77
   6   0   8   16.18    0.74
   6   0   9   74.86    1.77
  -6   0  -9   72.32    1.55
  -6   0  -9   71.79    1.53
   6   0   9   67.98    1.46
   6   0   9   65.03    1.33
   6   0   9   70.61    1.51
   6   0  10    5.10    0.53
  -6   0 -10    5.30    0.42
   6   0  10    5.33    0.45
   6   0  10    4.74    0.41
   6   0  11    2.00    0.39
  -6   0 -11    1.72    0.30
   6   0  11    1.25    0.28
   6   0  12    2.51    0.32
  -6  -1  11    5.50    0.36
   6   1 -11    5.62    0.43
   6   1 -10   78.55    1.34
  -6  -1  10   79.39    1.37
  -6  -1  10   90.04    1.49
   6   1 -10   87.80    1.70
   6   1  -9    4.59    0.43
  -6  -1   9    4.25    0.41
  -6  -1   9    4.89    0.51
   6   1  -9    4.58    0.54
   6   1  -8    8.76    0.59
   6   1  -8    9.63    0.64
  -6  -1   8    8.72    0.56
  -6  -1   8    8.93    0.68
   6   1  -8    9.19    0.76
  -6  -1   8    8.30    0.57
   6   1  -7    0.70    0.35
   6   1  -7    0.41    0.30
  -6  -1   7    0.49    0.32
   6   1  -7    0.11    0.36
  -6  -1   7    0.16    0.27
  -6  -1   7    0.73    0.43
   6   1  -7    0.64    0.46
   6   1  -6   46.21    1.45
   6   1  -6   45.42    1.48
  -6  -1   6   46.43    1.35
   6   1  -6   48.87    1.22
  -6  -1   6   46.77    1.44
   6   1  -6   47.84    1.65
   6   1  -6   47.33    1.20
  -6  -1   6   44.65    1.31
   6   1  -5   12.49    0.68
   6   1  -5   14.80    0.88
   6   1  -5   14.72    0.89
  -6  -1   5   13.50    0.82
   6   1  -5   14.98    0.73
  -6  -1   5   15.66    0.87
   6   1  -5   14.43    0.96
   6   1  -5   14.54    0.73
  -6  -1   5   13.69    0.77
   6   1  -4   68.17    1.45
   6   1  -4   69.36    1.87
   6   1  -4   69.30    1.89
  -6  -1   4   75.28    1.78
  -6  -1   4   65.44    3.19
   6   1  -4   72.63    1.51
  -6  -1   4   71.91    1.73
   6   1  -4   70.34    2.05
   6   1  -4   72.03    1.52
  -6  -1   4   66.80    1.57
   6   1  -3    3.27    0.55
   6   1  -3    3.12    0.42
   6   1  -3    3.78    0.55
  -6  -1   3    2.54    0.81
  -6  -1   3    5.72    0.66
  -6  -1   3    3.12    0.98
   6   1  -3    3.25    0.42
  -6  -1   3    3.85    0.50
   6   1  -3    3.40    0.58
  -6  -1   3    3.23    0.51
   6   1  -3    3.97    0.45
  -6  -1   3    2.45    0.40
   6   1  -2   83.12    1.59
  -6  -1   2   84.31    3.48
  -6  -1   2   94.87    2.01
  -6  -1   2   91.04    3.88
   6   1  -2   89.19    1.65
  -6  -1   2   91.44    1.86
   6   1  -2   95.46    2.35
   6   1  -2   89.39    1.68
   6   1  -2   93.40    2.42
   6   1  -1  695.89    5.79
  -6  -1   1  746.31   11.00
  -6  -1   1  783.20    6.68
  -6  -1   1  766.92   11.91
   6   1  -1  770.22    7.55
   6   1  -1  718.68    5.87
   6   1  -1  720.16    5.94
   6   1  -1  779.31    7.81
   6   1   0   39.97    1.06
   6   1   0   44.02    2.94
  -6  -1   0   44.27    2.59
  -6  -1   0   47.41    1.36
  -6  -1   0   46.75    2.88
   6   1   0   46.32    1.62
   6   1   0   43.48    1.59
   6   1   0   41.95    1.11
   6   1   0   44.69    1.68
   6   1   1   15.71    0.64
   6   1   1   13.01    1.68
  -6  -1  -1    9.51    1.33
  -6  -1  -1   10.67    0.71
  -6  -1  -1   10.54    1.58
   6   1   1   11.82    0.91
   6   1   1   11.18    0.84
   6   1   1   10.08    0.82
  -6  -1  -1    9.92    1.27
   6   1   1   18.23    0.70
   6   1   1    9.88    0.84
   6   1   1   11.41    0.83
   6   1   2  143.06    2.74
  -6  -1  -2  149.29    4.80
  -6  -1  -2  145.78    2.32
  -6  -1  -2  153.29    5.15
   6   1   2  154.11    3.15
   6   1   2  146.75    2.95
   6   1   2  143.67    2.96
  -6  -1  -2  141.35    4.50
   6   1   2  154.78    3.00
   6   1   2  142.68    3.11
   6   1   3   22.11    1.07
  -6  -1  -3   19.91    0.82
  -6  -1  -3   22.21    2.03
   6   1   3   23.33    1.27
   6   1   3   23.23    1.21
  -6  -1  -3   20.34    1.74
   6   1   3   24.08    1.21
   6   1   3   22.69    1.29
   6   1   4   14.21    0.89
   6   1   4   14.68    1.05
  -6  -1  -4   15.31    1.69
   6   1   4   15.13    0.98
  -6  -1  -4   13.56    1.50
   6   1   4   13.91    0.70
   6   1   4   14.32    0.98
   6   1   5   28.39    1.22
   6   1   5   25.74    1.38
  -6  -1  -5   26.87    2.12
  -6  -1  -5   27.74    2.35
   6   1   5   28.65    1.33
   6   1   5   29.44    1.28
  -6  -1  -5   26.76    2.03
   6   1   5   28.71    1.38
  -6  -1  -5   26.80    1.08
   6   1   6   20.46    1.06
  -6  -1  -6   21.48    1.84
  -6  -1  -6   21.42    1.99
   6   1   6   20.11    1.15
   6   1   6   20.77    1.10
  -6  -1  -6   20.19    1.78
   6   1   6   22.35    1.25
  -6  -1  -6   21.28    0.92
   6   1   7  330.12    4.75
  -6  -1  -7  325.26    7.66
  -6  -1  -7  350.68    4.15
   6   1   7  343.77    4.57
   6   1   7  325.30    4.84
   6   1   7  317.69    3.40
   6   1   8  103.65    2.51
   6   1   8  106.71    2.28
  -6  -1  -8  106.00    2.09
   6   1   8  104.13    2.37
   6   1   8   97.62    1.68
   6   1   9   75.05    1.79
  -6  -1  -9   76.02    1.67
   6   1   9   72.34    1.91
  -6  -1  -9   77.09    1.67
   6   1  10  206.35    2.78
  -6  -1 -10  197.50    2.57
  -6  -1 -10  195.20    2.36
   6   1  10  185.18    2.39
   6   1  10  186.24    2.25
  -6  -1 -11   65.74    1.19
   6   1  11   63.36    1.31
   6   1  11   62.88    1.24
   6   1  12    6.41    0.39
  -6  -1 -12    6.61    0.37
  -6  -2  11   11.00    0.46
   6   2 -11   10.66    0.46
   6   2 -10   16.04    0.62
  -6  -2  10   16.58    0.60
  -6  -2  10   17.46    0.63
   6   2 -10   17.31    0.70
   6   2  -9   40.64    1.12
  -6  -2   9   38.47    1.00
  -6  -2   9   42.59    1.11
   6   2  -9   40.89    1.21
   6   2  -8   14.33    0.78
  -6  -2   8   12.63    0.64
  -6  -2   8   15.46    0.81
   6   2  -8   13.77    0.81
  -6  -2   8   12.92    0.63
   6   2  -7    4.38    0.53
  -6  -2   7    4.61    0.46
  -6  -2   7    3.51    0.41
  -6  -2   7    4.10    0.57
   6   2  -7    3.86    0.55
  -6  -2   7    3.82    0.45
   6   2  -6   12.07    0.82
  -6  -2   6   10.81    0.69
  -6  -2   6   12.08    0.77
   6   2  -6   12.28    0.87
  -6  -2   6   12.22    0.77
   6   2  -5   11.73    0.83
  -6  -2   5   11.01    0.73
  -6  -2   5   11.13    0.74
  -6  -2   5   11.85    0.79
   6   2  -5   11.81    0.88
  -6  -2   5   12.47    0.81
   6   2  -4    0.50    0.36
   6   2  -4    0.01    0.34
  -6  -2   4   -0.22    0.40
   6   2  -4    0.14    0.38
   6   2  -4   -0.16    0.43
   6   2  -3    0.51    0.37
  -6  -2   3    0.19    0.41
  -6  -2   3   -0.64    0.64
  -6  -2   3    0.01    0.36
   6   2  -3    0.78    0.41
   6   2  -3    0.06    0.39
   6   2  -2  162.56    3.01
  -6  -2   2  152.84    4.58
  -6  -2   2  174.25    2.76
  -6  -2   2  161.93    5.13
  -6  -2   2  156.43    2.53
   6   2  -2  168.10    3.15
   6   2  -2  156.94    2.32
   6   2  -2  170.45    3.31
  -6  -2   1   26.58    1.97
  -6  -2   1   26.46    1.08
  -6  -2   1   24.15    2.08
   6   2  -1   25.73    1.23
   6   2  -1   22.70    0.86
   6   2  -1   27.47    1.33
  -6  -2   0  191.09    5.29
  -6  -2   0  201.02    2.93
  -6  -2   0  206.19    5.92
   6   2   0  193.85    3.34
   6   2   0  189.97    3.37
   6   2   0  184.52    2.46
   6   2   0  200.51    3.66
   6   2   1    2.42    0.51
  -6  -2  -1    2.25    0.45
  -6  -2  -1    2.50    0.95
   6   2   1    2.24    0.49
   6   2   1    2.15    0.49
  -6  -2  -1    1.92    0.61
   6   2   1    1.90    0.32
  -6  -2  -1    2.85    0.49
  -6  -2  -2    8.66    0.62
  -6  -2  -2    9.11    1.43
   6   2   2    8.98    0.84
   6   2   2    7.69    0.71
   6   2   2    7.59    0.75
  -6  -2  -2    7.15    1.09
  -6  -2  -2    7.93    0.64
   6   2   2    7.83    0.78
   6   2   2    9.14    0.77
   6   2   3   94.85    2.15
  -6  -2  -3   94.54    1.82
  -6  -2  -3   95.35    4.08
   6   2   3   96.25    2.53
   6   2   3  102.73    2.42
  -6  -2  -3   90.01    3.53
   6   2   3   96.30    2.58
   6   2   3   99.26    2.42
   6   2   4    6.62    0.62
   6   2   4    7.12    0.79
  -6  -2  -4    6.67    1.26
  -6  -2  -4    7.83    1.22
  -6  -2  -4    7.25    0.66
  -6  -2  -4    6.85    1.06
  -6  -2  -4    7.16    0.65
   6   2   4    6.95    0.79
   6   2   4    7.30    0.74
   6   2   5   12.74    0.82
   6   2   5   12.37    1.00
  -6  -2  -5   12.04    1.51
  -6  -2  -5   11.54    1.49
   6   2   5   13.95    0.98
  -6  -2  -5   11.74    1.37
  -6  -2  -5   11.90    0.76
   6   2   5   11.98    0.93
   6   2   6   -0.21    0.40
   6   2   6    0.05    0.32
  -6  -2  -6    0.09    0.62
   6   2   6   -0.07    0.46
  -6  -2  -6    0.54    0.51
   6   2   6   -0.23    0.44
   6   2   6    0.23    0.38
  -6  -2  -6    0.04    0.28
  -6  -2  -7    4.13    0.95
   6   2   7    5.91    0.71
  -6  -2  -7    7.95    0.65
   6   2   7    6.27    0.69
  -6  -2  -7    6.82    1.16
  -6  -2  -7    7.52    0.56
   6   2   7    5.81    0.74
  -6  -2  -7    5.78    0.53
   6   2   8   86.88    2.33
  -6  -2  -8   88.55    1.92
   6   2   8   90.36    2.24
   6   2   8   85.74    2.36
  -6  -2  -8   88.03    1.87
  -6  -2  -8   83.78    1.71
   6   2   9  406.33    5.21
   6   2   9  438.78    4.67
  -6  -2  -9  415.16    4.48
  -6  -2  -9  421.94    4.45
   6   2   9  426.58    5.08
  -6  -2  -9  409.12    4.15
   6   2  10  330.99    3.69
  -6  -2 -10  316.15    3.57
  -6  -2 -10  327.57    3.58
   6   2  10  321.58    4.11
  -6  -2 -10  327.73    3.47
   6   2  11    0.05    0.29
  -6  -2 -11    0.33    0.24
  -6  -2 -11    0.13    0.23
  -6  -2 -11    0.18    0.21
  -6  -2 -12   43.99    0.92
  -6  -2 -12   42.31    0.84
   6   2  12   42.11    0.91
  -6  -3  10   10.69    0.52
   6   3 -10   10.35    0.50
  -6  -3  10   10.25    0.44
   6   3 -10    9.85    0.45
   6   3  -9   13.37    0.65
  -6  -3   9   12.26    0.56
   6   3  -9   12.40    0.61
   6   3  -8    2.10    0.42
  -6  -3   8    2.17    0.35
  -6  -3   8    1.64    0.42
   6   3  -8    1.73    0.35
   6   3  -7   27.43    1.10
  -6  -3   7   23.79    0.86
  -6  -3   7   27.19    1.03
   6   3  -7   25.75    1.05
  -6  -3   7   26.17    0.92
   6   3  -6   41.15    1.39
  -6  -3   6   41.08    1.31
   6   3  -6   38.87    1.35
  -6  -3   6   41.07    1.27
   6   3  -5    6.01    0.64
  -6  -3   5    6.88    0.58
  -6  -3   5    5.53    0.52
  -6  -3   5    6.13    0.64
   6   3  -5    6.36    0.64
  -6  -3   5    5.98    0.61
   6   3  -4  279.39    4.04
  -6  -3   4  293.88    3.65
  -6  -3   4  292.69    3.75
  -6  -3   4  288.15    3.70
   6   3  -4  284.53    4.03
  -6  -3   4  295.19    3.87
   6   3  -3   14.14    0.84
   6   3  -3   15.54    0.95
  -6  -3   3   17.90    0.91
  -6  -3   3   15.67    0.89
  -6  -3   3   14.71    0.82
   6   3  -3   15.00    0.93
  -6  -3   3   17.01    0.94
   6   3  -2   87.31    2.04
   6   3  -2   86.70    2.18
  -6  -3   2   89.04    1.95
  -6  -3   2   82.57    3.55
  -6  -3   2   91.60    2.10
  -6  -3   2   86.08    1.86
   6   3  -2   84.80    2.14
  -6  -3   2   88.60    2.08
   6   3  -2   92.36    2.41
   6   3  -1   93.99    2.16
  -6  -3   1   92.23    1.98
  -6  -3   1   91.77    3.82
  -6  -3   1   94.57    2.16
  -6  -3   1   90.84    1.85
   6   3  -1   86.68    2.18
  -6  -3   1   95.94    2.15
   6   3  -1   95.71    2.47
  -6  -3   0  615.04    5.79
  -6  -3   0  610.44   10.32
   6   3   0  585.72    6.18
   6   3   0  583.22    6.34
  -6  -3   0  610.80    6.06
   6   3   0  617.72    6.88
  -6  -3  -1    7.50    0.66
  -6  -3  -1    5.74    1.16
   6   3   1    5.70    0.60
  -6  -3  -1    7.53    0.71
   6   3   1    5.37    0.63
  -6  -3  -1    7.10    0.64
   6   3   1    6.29    0.73
  -6  -3  -2   84.42    3.80
   6   3   2   85.42    2.34
   6   3   2   79.17    2.01
  -6  -3  -2   84.82    2.04
  -6  -3  -2   81.69    1.88
   6   3   2   84.25    2.36
   6   3   3  149.14    2.66
  -6  -3  -3  161.65    5.29
   6   3   3  162.27    3.29
   6   3   3  145.10    2.82
  -6  -3  -3  160.44    2.78
  -6  -3  -3  142.80    4.32
  -6  -3  -3  162.88    2.81
  -6  -3  -3  157.86    2.60
   6   3   3  154.04    3.28
   6   3   3  159.34    3.17
   6   3   4    2.00    0.50
   6   3   4    1.46    0.36
  -6  -3  -4    2.21    0.92
   6   3   4    1.82    0.51
  -6  -3  -4    1.91    0.75
  -6  -3  -4    2.24    0.45
  -6  -3  -4    2.03    0.45
   6   3   4    1.35    0.46
   6   3   5    2.94    0.57
   6   3   5    3.00    0.44
  -6  -3  -5    2.61    0.92
   6   3   5    2.47    0.55
  -6  -3  -5    3.60    0.97
  -6  -3  -5    3.00    0.45
  -6  -3  -5    3.35    0.52
   6   3   6   39.50    1.31
   6   3   6   39.14    1.66
  -6  -3  -6   43.08    2.73
  -6  -3  -6   39.03    2.60
   6   3   6   43.08    1.67
  -6  -3  -6   41.20    1.32
  -6  -3  -6   42.05    1.37
   6   3   6   41.75    1.66
   6   3   7    1.41    0.53
   6   3   7    1.90    0.54
  -6  -3  -7    1.72    0.42
   6   3   7    1.95    0.50
  -6  -3  -7    1.20    0.37
  -6  -3  -7    1.45    0.37
   6   3   8   85.33    2.01
   6   3   8   88.01    2.32
  -6  -3  -8   90.88    1.94
   6   3   8   90.73    2.26
  -6  -3  -8   84.26    1.69
   6   3   8   87.05    2.36
  -6  -3  -8   90.94    1.92
  -6  -3  -8   85.65    1.80
   6   3   9   15.96    0.87
   6   3   9   15.70    1.02
  -6  -3  -9   15.37    0.79
  -6  -3  -9   15.65    0.81
   6   3   9   14.70    0.94
   6   3   9   13.07    0.96
  -6  -3  -9   15.65    0.78
   6   3  10  233.61    3.16
   6   3  10  242.00    2.99
  -6  -3 -10  240.84    3.02
  -6  -3 -10  244.45    2.98
   6   3  10  243.53    3.49
  -6  -3 -10  245.61    2.98
  -6  -3 -10  233.53    2.77
  -6  -3 -10  237.83    2.73
  -6  -3 -11    2.36    0.37
   6   3  11    1.69    0.34
   6   3  11    1.48    0.30
  -6  -3 -11    2.13    0.32
  -6  -3 -11    1.90    0.28
   6   3  11    1.86    0.44
  -6  -3 -11    1.71    0.30
  -6  -3 -12    1.08    0.29
  -6  -3 -12    1.19    0.28
  -6  -4   9   45.29    1.02
   6   4  -9   46.49    1.05
  -6  -4   8    7.43    0.54
   6   4  -8    7.51    0.55
  -6  -4   8    7.17    0.45
   6   4  -8    6.32    0.42
  -6  -4   7   64.00    1.32
   6   4  -7   66.51    1.46
   6   4  -6  241.03    3.05
   6   4  -6  248.42    3.42
  -6  -4   6  249.11    3.19
   6   4  -6  239.59    3.16
  -6  -4   6  244.44    3.06
   6   4  -5    3.75    0.46
   6   4  -5    3.85    0.57
  -6  -4   5    3.96    0.54
   6   4  -5    3.33    0.46
  -6  -4   5    3.90    0.50
   6   4  -4   51.92    1.51
   6   4  -4   51.34    1.61
  -6  -4   4   52.44    1.43
  -6  -4   4   49.87    1.45
   6   4  -4   49.33    1.49
  -6  -4   4   54.36    1.54
   6   4  -3  107.29    2.30
   6   4  -3  106.80    2.38
  -6  -4   3  111.37    2.22
  -6  -4   3  105.00    2.10
   6   4  -3  105.00    2.26
  -6  -4   3  110.59    2.27
   6   4  -3  111.02    2.59
   6   4  -2  100.04    2.27
   6   4  -2  101.14    2.32
  -6  -4   2  106.63    2.23
  -6  -4   2   96.86    1.99
   6   4  -2   96.24    2.18
  -6  -4   2  106.82    2.26
   6   4  -2  104.07    2.53
   6   4  -1  103.09    2.33
  -6  -4   1  106.79    3.99
  -6  -4   1  108.53    2.29
  -6  -4   1   96.57    1.93
   6   4  -1   97.55    2.22
  -6  -4   1  104.75    2.24
   6   4  -1  103.26    2.53
   6   4   0  164.74    3.00
   6   4   0  164.43    2.85
  -6  -4   0  164.79    5.11
  -6  -4   0  170.88    2.96
  -6  -4   0  165.60    2.77
  -6  -4   0  173.10    2.91
   6   4   0  168.78    3.28
   6   4   1  157.28    2.83
  -6  -4  -1  160.10    5.15
  -6  -4  -1  163.98    2.88
  -6  -4  -1  161.75    2.76
  -6  -4  -1  164.25    2.81
   6   4   1  166.07    3.28
   6   4   2   48.82    1.41
  -6  -4  -2   56.10    3.10
   6   4   2   51.39    1.82
  -6  -4  -2   53.77    1.63
  -6  -4  -2   52.41    1.57
  -6  -4  -2   53.16    1.54
   6   4   2   51.64    1.84
  -6  -4  -3  589.93   10.35
   6   4   3  580.90    6.62
  -6  -4  -3  549.71    9.55
  -6  -4  -3  578.75    5.87
  -6  -4  -3  582.26    5.91
  -6  -4  -3  561.25    5.64
   6   4   3  563.35    6.69
   6   4   3  590.93    6.56
  -6  -4  -4   58.58    3.21
   6   4   4   59.55    1.97
  -6  -4  -4   55.07    2.96
  -6  -4  -4   59.65    1.62
  -6  -4  -4   58.09    1.66
  -6  -4  -4   60.18    1.69
  -6  -4  -4   55.66    1.50
   6   4   4   54.61    1.93
   6   4   4   58.66    1.89
  -6  -4  -5   58.12    3.20
   6   4   5   60.52    2.00
  -6  -4  -5   59.64    3.09
  -6  -4  -5   59.55    1.56
  -6  -4  -5   63.48    1.70
  -6  -4  -5   63.70    1.72
   6   4   5   61.39    1.97
   6   4   6   92.33    2.10
   6   4   6   88.10    2.41
  -6  -4  -6   85.90    3.72
  -6  -4  -6   87.61    1.79
  -6  -4  -6   92.78    2.00
  -6  -4  -6   92.89    2.00
  -6  -4  -6   92.03    2.05
   6   4   6   91.82    2.38
   6   4   7   16.94    0.93
   6   4   7   18.28    1.13
  -6  -4  -7   17.24    0.87
  -6  -4  -7   18.00    0.88
  -6  -4  -7   18.65    0.97
  -6  -4  -7   18.64    0.91
   6   4   7   18.14    1.12
   6   4   8   85.73    2.01
   6   4   8   91.69    2.34
  -6  -4  -8   90.31    1.88
  -6  -4  -8   91.68    1.87
   6   4   8   92.09    2.26
  -6  -4  -8   86.76    1.76
  -6  -4  -8   90.67    1.94
  -6  -4  -8   87.24    1.84
   6   4   8   86.99    2.30
   6   4   9   42.93    1.36
   6   4   9   45.07    1.59
   6   4   9   42.64    1.20
  -6  -4  -9   42.32    1.24
  -6  -4  -9   44.13    1.25
   6   4   9   44.56    1.52
  -6  -4  -9   42.19    1.09
   6   4   9   42.01    1.57
  -6  -4  -9   46.26    1.32
  -6  -4  -9   43.78    1.27
  -6  -4  -9   45.88    1.27
   6   4  10  305.86    3.63
   6   4  10  307.60    4.06
   6   4  10  309.57    3.33
   6   4  10  304.54    3.32
  -6  -4 -10  305.48    3.38
  -6  -4 -10  315.28    3.45
  -6  -4 -10  301.61    3.31
  -6  -4 -10  304.23    3.22
  -6  -4 -11   91.81    1.56
   6   4  11   87.25    1.62
   6   4  11   84.42    1.34
   6   4  11   84.20    1.42
  -6  -4 -11   87.14    1.51
   6   4  11   88.73    1.82
  -6  -4 -11   89.62    1.52
  -6  -4 -11   83.77    1.28
  -6  -4 -12   24.28    0.69
  -6  -4 -12   22.69    0.67
  -6  -5   9   -0.16    0.23
  -6  -5   8   81.25    1.39
   6   5  -8   82.50    1.41
  -6  -5   8   73.66    1.12
   6   5  -8   75.07    1.39
   6   5  -7   17.67    0.65
  -6  -5   7   19.83    0.78
   6   5  -7   20.40    0.81
  -6  -5   7   17.74    0.62
   6   5  -7   19.69    0.83
   6   5  -6   20.81    0.82
  -6  -5   6   21.31    0.89
   6   5  -6   20.60    0.89
  -6  -5   6   21.78    0.77
   6   5  -6   20.50    0.93
   6   5  -5   92.40    1.88
  -6  -5   5   90.80    1.86
   6   5  -5   92.27    1.98
  -6  -5   5   96.14    1.82
   6   5  -5   93.43    2.09
   6   5  -4   25.16    1.04
  -6  -5   4   24.27    1.00
   6   5  -4   24.40    1.09
  -6  -5   4   25.46    1.03
   6   5  -4   25.95    1.16
   6   5  -3  243.80    3.49
   6   5  -3  237.78    3.21
  -6  -5   3  231.48    3.18
   6   5  -3  236.97    3.52
  -6  -5   3  242.79    3.25
  -6  -5   3  253.82    3.45
   6   5  -3  248.21    3.76
   6   5  -2   19.69    1.01
   6   5  -2   19.18    0.92
  -6  -5   2   18.18    0.84
   6   5  -2   17.83    0.99
  -6  -5   2   19.53    0.95
  -6  -5   2   19.23    0.98
   6   5  -2   19.59    1.07
   6   5  -1   14.64    0.91
   6   5  -1   13.26    0.80
  -6  -5   1   14.59    0.87
  -6  -5   1   14.12    0.77
  -6  -5   1   13.64    0.74
  -6  -5   1   13.19    0.85
   6   5  -1   14.28    0.96
   6   5   0   35.04    1.37
   6   5   0   36.18    1.31
  -6  -5   0   34.92    2.28
  -6  -5   0   35.55    1.32
  -6  -5   0   35.77    1.24
  -6  -5   0   34.14    1.19
  -6  -5   0   36.67    1.34
   6   5   0   34.53    1.42
   6   5   1   21.71    1.08
   6   5   1   20.84    1.03
  -6  -5  -1   19.64    1.82
  -6  -5  -1   20.72    1.04
  -6  -5  -1   21.46    1.00
  -6  -5  -1   20.14    0.95
  -6  -5  -1   20.78    1.03
   6   5   1   21.26    1.14
   6   5   2   18.60    0.98
  -6  -5  -2   18.45    1.78
   6   5   2   18.81    1.11
  -6  -5  -2   18.68    0.99
  -6  -5  -2   19.41    0.97
  -6  -5  -2   18.92    0.93
  -6  -5  -2   18.92    0.97
   6   5   2   17.95    1.08
  -6  -5  -3    7.31    1.24
   6   5   3    7.34    0.73
  -6  -5  -3    7.67    0.68
  -6  -5  -3    8.41    0.69
  -6  -5  -3    7.36    0.65
  -6  -5  -3    7.67    0.65
   6   5   3    6.87    0.73
   6   5   3    7.66    0.75
   6   5   4  294.29    3.81
   6   5   4  295.80    4.36
  -6  -5  -4  291.27    3.81
  -6  -5  -4  298.02    3.56
  -6  -5  -4  295.92    3.90
  -6  -5  -4  299.66    3.91
  -6  -5  -4  286.45    3.67
   6   5   4  278.68    4.34
   6   5   4  306.98    4.44
   6   5   5    1.50    0.49
   6   5   5    0.45    0.34
   6   5   5   -0.01    0.38
  -6  -5  -5    0.56    0.29
  -6  -5  -5    0.12    0.39
  -6  -5  -5   -0.03    0.37
  -6  -5  -5    0.30    0.36
  -6  -5  -5    0.32    0.31
   6   5   6  125.84    2.42
   6   5   6  117.00    2.63
  -6  -5  -6  122.62    2.19
  -6  -5  -6  124.25    2.34
  -6  -5  -6  127.45    2.42
  -6  -5  -6  126.13    2.40
   6   5   6  123.18    2.72
   6   5   7    3.41    0.61
   6   5   7    2.24    0.48
  -6  -5  -7    2.63    0.42
   6   5   7    2.37    0.61
  -6  -5  -7    2.08    0.40
  -6  -5  -7    2.46    0.46
  -6  -5  -7    2.31    0.48
  -6  -5  -7    2.18    0.44
   6   5   8   46.03    1.43
   6   5   8   48.24    1.64
   6   5   8   46.83    1.28
  -6  -5  -8   46.31    1.28
  -6  -5  -8   45.80    1.24
  -6  -5  -8   47.61    1.29
  -6  -5  -8   50.31    1.39
  -6  -5  -8   47.52    1.39
   6   5   8   47.12    1.61
  -6  -5  -8   50.83    1.41
   6   5   9   34.48    1.19
   6   5   9   34.29    1.33
   6   5   9   33.56    1.05
  -6  -5  -9   34.35    1.03
   6   5   9   35.15    1.32
  -6  -5  -9   34.94    1.02
  -6  -5  -9   35.92    1.13
   6   5   9   32.74    1.30
  -6  -5  -9   35.64    1.13
  -6  -5  -9   36.08    1.12
  -6  -5 -10  257.74    2.89
   6   5  10  249.92    3.13
   6   5  10  249.94    3.40
   6   5  10  230.65    2.64
   6   5  10  245.81    2.80
  -6  -5 -10  243.58    2.80
   6   5  10  259.86    3.36
  -6  -5 -10  257.87    2.97
  -6  -5 -10  248.29    2.82
  -6  -5 -11   90.69    1.41
  -6  -5 -11   90.71    1.46
   6   5  11   87.34    1.57
   6   5  11   83.72    1.35
   6   5  11   91.23    1.72
  -6  -5 -11   90.66    1.48
  -6  -5 -11   84.13    1.29
  -6  -5 -12    0.36    0.23
  -6  -5 -12    0.20    0.25
   6   6  -7   77.58    1.16
   6   6  -7   68.86    1.18
   6   6  -6   20.13    0.72
  -6  -6   6   21.10    0.77
   6   6  -6   19.76    0.75
   6   6  -6   19.16    0.73
   6   6  -5   20.51    0.82
  -6  -6   5   19.80    0.80
   6   6  -5   19.38    0.81
  -6  -6   5   19.36    0.72
   6   6  -5   19.75    0.83
   6   6  -4   20.70    0.90
  -6  -6   4   19.15    0.83
   6   6  -4   18.81    0.77
   6   6  -4   19.74    0.89
  -6  -6   4   21.04    0.85
   6   6  -4   19.64    0.88
   6   6  -3   33.76    1.21
  -6  -6   3   31.68    1.06
   6   6  -3   33.44    1.10
   6   6  -3   33.72    1.17
  -6  -6   3   35.24    1.16
   6   6  -3   33.45    1.22
   6   6  -2    0.62    0.33
   6   6  -2    0.81    0.30
  -6  -6   2    0.47    0.28
   6   6  -2    0.86    0.39
  -6  -6   2    0.63    0.40
   6   6  -1   -0.11    0.32
   6   6  -1    0.37    0.31
   6   6  -1    0.23    0.36
  -6  -6   1    0.29    0.25
  -6  -6   1    0.45    0.39
   6   6   0   -0.27    0.30
   6   6   0    0.50    0.35
   6   6   0   -0.16    0.39
  -6  -6   0    0.27    0.32
  -6  -6   0    0.13    0.39
   6   6   1   31.03    1.23
   6   6   1   32.64    1.32
  -6  -6  -1   30.38    1.08
  -6  -6  -1   31.91    1.23
   6   6   1   30.94    1.27
   6   6   2   73.18    1.69
   6   6   2   73.30    1.89
   6   6   2   74.15    1.97
  -6  -6  -2   74.24    1.78
  -6  -6  -2   74.10    1.66
  -6  -6  -2   73.43    1.73
  -6  -6  -2   74.37    1.84
   6   6   2   72.21    1.96
   6   6   3   81.19    1.82
   6   6   3   78.01    2.03
  -6  -6  -3   80.16    1.85
  -6  -6  -3   79.28    1.79
  -6  -6  -3   77.93    1.81
  -6  -6  -3   78.64    1.86
   6   6   3   76.51    2.03
   6   6   3   79.10    2.10
   6   6   4   74.71    1.76
   6   6   4   72.55    1.95
  -6  -6  -4   77.91    1.84
  -6  -6  -4   76.51    1.78
  -6  -6  -4   76.83    1.81
  -6  -6  -4   72.83    1.74
   6   6   4   76.74    2.05
   6   6   5   24.64    1.04
   6   6   5   24.42    1.13
  -6  -6  -5   24.83    1.06
  -6  -6  -5   24.90    1.02
  -6  -6  -5   25.81    1.06
  -6  -6  -5   23.97    0.95
  -6  -6  -5   26.67    1.08
   6   6   5   26.54    1.22
   6   6   6  237.69    3.34
  -6  -6  -6  252.84    3.37
  -6  -6  -6  243.59    3.17
  -6  -6  -6  249.21    3.33
  -6  -6  -6  243.10    3.31
  -6  -6  -6  252.42    3.36
   6   6   6  251.37    3.75
   6   6   7    0.50    0.39
   6   6   7    0.24    0.33
   6   6   7    0.21    0.46
  -6  -6  -7   -0.07    0.29
  -6  -6  -7    0.60    0.37
  -6  -6  -7    0.29    0.38
  -6  -6  -7    0.20    0.41
   6   6   8  233.30    3.17
   6   6   8  236.88    3.49
   6   6   8  231.64    2.88
  -6  -6  -8  238.71    2.97
  -6  -6  -8  236.29    2.99
  -6  -6  -8  237.89    3.10
   6   6   8  234.12    3.43
  -6  -6  -8  241.03    3.08
  -6  -6  -9   16.66    0.63
  -6  -6  -9   16.56    0.68
   6   6   9   15.58    0.79
   6   6   9   16.18    0.86
   6   6   9   15.44    0.68
  -6  -6  -9   16.02    0.69
   6   6   9   16.93    0.88
  -6  -6  -9   16.25    0.73
   6   6   9   14.65    0.81
  -6  -6  -9   16.77    0.76
  -6  -6  -9   17.13    0.77
  -6  -6 -10   40.41    0.87
  -6  -6 -10   41.40    0.96
   6   6  10   43.14    1.13
   6   6  10   40.74    1.20
   6   6  10   38.61    0.94
   6   6  10   42.20    1.19
  -6  -6 -10   41.12    0.90
  -6  -6 -10   43.00    1.05
  -6  -6 -10   41.05    1.01
  -6  -6 -11   17.43    0.57
   6   6  11   16.72    0.65
   6   6  11   17.42    0.71
  -6  -7   6    2.52    0.31
   6   7  -6    2.04    0.27
  -6  -7   6    2.98    0.34
   6   7  -5   66.28    1.25
  -6  -7   5   68.37    1.31
   6   7  -4    4.57    0.44
  -6  -7   4    3.32    0.36
   6   7  -4    3.75    0.34
  -6  -7   4    3.66    0.35
   6   7  -3   21.43    0.88
  -6  -7   3   19.54    0.75
   6   7  -3   20.45    0.78
  -6  -7   3   21.91    0.82
   6   7  -2   29.19    1.08
  -6  -7   2   26.18    0.87
   6   7  -2   26.98    0.96
  -6  -7   2   30.63    1.04
   6   7  -1   40.17    1.30
   6   7  -1   39.64    1.22
  -6  -7   1   42.91    1.30
   6   7   0    7.03    0.62
   6   7   0    6.97    0.50
   6   7   0    7.61    0.61
  -6  -7   0    6.77    0.53
   6   7   0    6.34    0.56
  -6  -7   0    7.30    0.50
  -6  -7   0    7.26    0.63
   6   7   1   72.14    1.55
   6   7   1   70.29    1.74
   6   7   1   69.02    1.70
  -6  -7  -1   71.51    1.55
  -6  -7  -1   74.27    1.78
   6   7   2   67.26    1.55
   6   7   2   65.89    1.71
   6   7   2   64.71    1.65
  -6  -7  -2   71.57    1.62
  -6  -7  -2   67.95    1.68
   6   7   3  269.24    3.37
   6   7   3  261.78    3.47
  -6  -7  -3  270.94    3.39
  -6  -7  -3  259.31    3.09
  -6  -7  -3  267.65    3.45
  -6  -7  -3  267.60    3.23
   6   7   3  269.24    3.74
   6   7   4  148.27    2.42
  -6  -7  -4  153.26    2.47
  -6  -7  -4  151.05    2.32
  -6  -7  -4  151.34    2.44
  -6  -7  -4  149.84    2.37
   6   7   4  155.52    2.73
   6   7   5   17.86    0.85
  -6  -7  -5   19.84    0.91
  -6  -7  -5   17.61    0.81
  -6  -7  -5   17.64    0.79
  -6  -7  -5   18.01    0.84
   6   7   5   17.54    0.92
   6   7   6   22.28    0.93
  -6  -7  -6   23.36    0.95
  -6  -7  -6   21.66    0.80
  -6  -7  -6   22.94    0.90
  -6  -7  -6   21.50    0.79
  -6  -7  -6   23.41    0.93
   6   7   6   22.13    1.00
   6   7   7   75.87    1.65
   6   7   7   79.55    1.84
  -6  -7  -7   79.90    1.64
  -6  -7  -7   74.26    1.46
  -6  -7  -7   78.08    1.59
   6   7   7   80.25    1.79
  -6  -7  -7   79.10    1.63
   6   7   8   55.08    1.34
   6   7   8   55.83    1.44
   6   7   8   52.57    1.17
  -6  -7  -8   57.05    1.29
  -6  -7  -8   53.54    1.19
   6   7   8   52.22    1.35
  -6  -7  -8   56.44    1.32
  -6  -7  -9   66.73    1.07
   6   7   9   74.08    1.45
   6   7   9   74.34    1.53
   6   7   9   67.89    1.23
  -6  -7  -9   76.14    1.36
   6   7   9   76.33    1.56
  -6  -7  -9   71.07    1.30
  -6  -7  -9   76.61    1.42
   6   7  10   19.54    0.70
   6   7  10   19.69    0.74
  -6  -7 -10   19.85    0.58
  -6  -8   4   15.46    0.58
   6   8  -3   28.01    0.83
  -6  -8   3   24.60    0.66
   6   8  -3   24.91    0.72
  -6  -8   3   27.55    0.81
  -6  -8   3   26.40    0.70
   6   8  -2    0.02    0.23
  -6  -8   2    0.31    0.20
   6   8  -2    0.28    0.30
  -6  -8   2    0.59    0.27
  -6  -8   2    0.50    0.27
   6   8  -1    4.75    0.44
  -6  -8   1    4.97    0.43
  -6  -8   1    5.32    0.47
   6   8   0  152.37    1.99
   6   8   0  155.58    2.30
  -6  -8   0  149.10    2.09
  -6  -8   0  158.38    2.32
   6   8   1   61.78    1.29
   6   8   1   61.78    1.46
  -6  -8  -1   64.04    1.47
   6   8   2   90.33    1.63
  -6  -8  -2   90.26    1.57
  -6  -8  -2   93.48    1.80
   6   8   2   91.97    1.85
   6   8   3  197.62    2.57
  -6  -8  -3  198.02    2.54
  -6  -8  -3  201.09    2.69
   6   8   3  197.77    2.79
   6   8   4    0.18    0.29
   6   8   4    0.30    0.30
  -6  -8  -4    0.71    0.33
  -6  -8  -4    0.32    0.25
  -6  -8  -4    0.40    0.33
   6   8   5   37.54    1.07
  -6  -8  -5   39.41    1.09
  -6  -8  -5   36.15    1.00
  -6  -8  -5   37.09    1.02
   6   8   5   38.04    1.13
   6   8   6   14.69    0.68
  -6  -8  -6   15.41    0.69
  -6  -8  -6   14.36    0.58
   6   8   6   13.90    0.68
  -6  -8  -6   13.85    0.64
   6   8   7   12.21    0.61
   6   8   7   12.97    0.66
  -6  -8  -7   13.16    0.62
   6   8   7   12.19    0.58
  -6  -8  -7   12.22    0.60
   6   8   8    0.16    0.28
   6   8   8    0.32    0.23
   6   8   8   -0.10    0.28
  -6  -8  -8    0.34    0.28
   6   8   9    1.07    0.30
   6   8   9    1.21    0.33
  -6  -8  -9    1.10    0.27
  -6  -9   1  124.68    1.50
   6   9  -1  121.01    1.54
  -6  -9   0    6.53    0.44
   6   9   0    6.52    0.42
   6   9   1    1.91    0.27
  -6  -9  -1    3.13    0.38
   6   9   1    2.77    0.32
   6   9   2  106.46    1.49
   6   9   2  107.79    1.59
   6   9   3    0.88    0.25
   6   9   3    1.16    0.30
  -6  -9  -3    1.37    0.24
  -6  -9  -3    1.43    0.34
   6   9   4   87.47    1.38
  -6  -9  -4   84.36    1.30
  -6  -9  -4   89.50    1.42
   6   9   4   83.95    1.31
   6   9   5   22.83    0.70
   6   9   5   23.45    0.75
  -6  -9  -5   23.92    0.70
  -6  -9  -5   21.98    0.66
   6   9   6   39.64    0.89
   6   9   6   38.50    0.86
  -6  -9  -6   39.64    0.89
   6   9   7   13.18    0.50
  -6  -9  -7   15.16    0.54
   7  -6  -5    5.39    0.30
   7  -6  -5    4.12    0.32
   7  -6  -4   15.50    0.44
   7  -6  -4    3.86    0.34
   7  -6  -4   14.83    0.46
   7  -6  -4    4.20    0.30
   7  -6  -3   22.42    0.51
   7  -6  -3    5.15    0.38
   7  -6  -3   22.64    0.55
   7  -6  -3    5.42    0.35
   7  -6  -3    4.13    0.36
   7  -6  -2   20.13    0.48
   7  -6  -2   20.53    0.63
   7  -6  -1   17.20    0.57
   7  -6  -1   16.21    0.58
   7  -6   0    0.81    0.26
   7  -6   0    0.33    0.28
   7  -6   1    8.08    0.43
   7  -6   2    9.73    0.42
   7  -5  -7    7.93    0.33
   7  -5  -7    9.49    0.35
   7  -5  -6   31.00    0.64
   7  -5  -6   33.10    0.67
   7  -5  -5   20.13    0.59
   7  -5  -5   16.46    0.58
   7  -5  -4   78.04    1.11
   7  -5  -4   75.81    1.13
   7  -5  -3  116.25    1.38
   7  -5  -3   69.60    1.37
   7  -5  -3  117.41    1.44
   7  -5  -3   71.44    1.22
   7  -5  -2  251.96    2.73
   7  -5  -2  249.77    2.30
   7  -5  -2  248.19    2.47
   7  -5  -1   48.59    0.81
   7  -5  -1   47.30    0.86
   7  -5   0   15.79    0.66
   7  -5   0   15.03    0.66
   7  -5   1    3.53    0.39
   7  -5   1    3.38    0.40
   7  -5   2  111.80    1.60
   7  -5   2  108.10    1.46
   7  -5   2  113.91    1.63
   7  -5   3   60.35    1.01
   7  -5   3   64.21    1.13
   7  -5   4   18.25    0.54
   7  -5   4   19.44    0.61
  -7   4   8   28.91    0.67
   7  -4  -8   27.26    0.53
   7  -4  -7    0.11    0.23
   7  -4  -7    0.24    0.24
  -7   4   7    0.07    0.25
   7  -4  -7    0.27    0.22
  -7   4   7   -0.06    0.24
   7  -4  -6   48.38    0.89
   7  -4  -6   40.83    0.83
  -7   4   6   40.89    0.92
   7  -4  -6   46.59    0.91
  -7   4   6   41.27    0.84
   7  -4  -5   28.23    0.74
   7  -4  -5   12.85    0.50
  -7   4   5   12.61    0.55
   7  -4  -5   25.39    0.74
   7  -4  -5   13.84    0.50
   7  -4  -4   70.93    1.20
   7  -4  -4   65.29    1.19
   7  -4  -3   77.61    1.27
   7  -4  -3   70.11    1.25
   7  -4  -2   72.75    1.18
   7  -4  -2   68.65    1.19
   7  -4  -1   87.60    1.26
   7  -4  -1   83.98    1.29
   7  -4   0   45.83    0.89
   7  -4   0   44.77    0.90
   7  -4   1   36.64    1.06
   7  -4   1   27.98    0.82
   7  -4   2    6.17    0.51
   7  -4   2    5.30    0.43
   7  -4   2    5.99    0.51
   7  -4   3  107.36    1.71
   7  -4   3  112.40    1.66
   7  -4   3  107.68    1.69
   7  -4   4   49.37    1.05
   7  -4   4   47.97    1.08
   7  -4   4   50.82    1.08
   7  -4   5    0.61    0.30
   7  -4   5    0.49    0.33
   7  -4   5    0.14    0.28
   7  -4   6   24.20    0.65
   7  -4   6   23.92    0.67
   7  -3  -9   95.04    1.09
  -7   3   9  111.94    1.32
   7  -3  -8   40.81    0.79
  -7   3   8   41.67    0.91
   7  -3  -8   40.77    0.73
  -7   3   8   39.52    0.82
   7  -3  -7   57.96    0.98
   7  -3  -7   59.30    1.02
  -7   3   7   57.24    1.14
   7  -3  -7   56.39    1.00
  -7   3   7   55.10    1.04
   7  -3  -6   10.35    0.50
   7  -3  -6   10.13    0.50
   7  -3  -6    9.35    0.56
   7  -3  -6    9.74    0.55
  -7   3   6    9.98    0.55
  -7   3   6    9.84    0.53
   7  -3  -6    9.99    0.51
  -7   3   6    8.51    0.49
   7  -3  -5    6.22    0.44
   7  -3  -5    9.02    0.57
  -7   3   5    6.74    0.52
   7  -3  -5    6.34    0.44
   7  -3  -5    6.67    0.53
   7  -3  -5    6.57    0.50
  -7   3   5    6.30    0.47
  -7   3   5    6.76    0.48
   7  -3  -5    8.48    0.56
  -7   3   5    6.00    0.43
   7  -3  -4   14.32    0.68
  -7   3   4   14.14    0.71
   7  -3  -4   14.56    0.59
   7  -3  -4   14.29    0.77
   7  -3  -4   13.48    0.72
  -7   3   4   13.61    0.63
  -7   3   4   14.34    0.64
   7  -3  -3   20.54    0.85
   7  -3  -3   52.83    1.11
  -7   3   3   19.26    0.83
   7  -3  -3   19.31    0.65
   7  -3  -3   19.77    0.94
   7  -3  -3   47.46    1.10
   7  -3  -2  138.88    2.31
   7  -3  -2  179.86    2.09
  -7   3   2  121.31    2.07
   7  -3  -2  135.66    2.53
   7  -3  -2  178.26    2.14
   7  -3  -2  144.20    1.94
   7  -3  -1   21.09    0.91
   7  -3  -1   71.04    1.25
  -7   3   1   19.35    0.81
  -7   3   1   18.52    1.74
   7  -3  -1   63.34    1.26
   7  -3  -1   21.85    0.77
   7  -3   0    5.06    0.52
   7  -3   0   38.16    0.90
  -7   3   0    4.76    0.96
   7  -3   0    5.20    0.54
   7  -3   0   36.77    0.89
   7  -3   0    5.20    0.44
   7  -3   1    8.50    0.63
   7  -3   1    8.27    0.62
   7  -3   2   17.62    0.84
   7  -3   2   18.28    0.82
   7  -3   3  160.99    2.31
   7  -3   3  161.86    2.26
   7  -3   4   13.27    0.72
   7  -3   4   13.99    0.67
   7  -3   5   25.49    0.81
   7  -3   5   25.28    0.88
   7  -3   5   23.66    0.77
   7  -3   6    5.94    0.45
   7  -3   6    5.10    0.40
   7  -3   7  112.65    1.48
   7  -3   7  118.26    1.59
  -7   2   9    2.36    0.32
   7  -2  -9    1.60    0.26
  -7   2   9    1.74    0.26
   7  -2  -8   94.18    1.28
   7  -2  -8   87.60    1.51
  -7   2   8   89.93    1.44
   7  -2  -8   84.66    1.49
   7  -2  -8   90.76    1.19
   7  -2  -7    3.37    0.36
   7  -2  -7    4.33    0.40
   7  -2  -7    3.44    0.42
  -7   2   7    3.82    0.43
   7  -2  -7    3.59    0.42
   7  -2  -7    3.34    0.35
  -7   2   7    3.56    0.40
   7  -2  -6  216.54    2.29
  -7   2   6  193.32    2.55
   7  -2  -6  219.28    2.34
   7  -2  -6  205.09    2.90
  -7   2   6  201.25    2.53
   7  -2  -6  199.68    2.85
  -7   2   6  199.45    2.49
   7  -2  -6  218.97    2.36
  -7   2   6  195.32    2.33
   7  -2  -5   -0.89    0.43
  -7   2   5   -0.22    0.38
   7  -2  -5    0.04    0.31
   7  -2  -5    0.17    0.34
  -7   2   5   -0.09    0.33
   7  -2  -5    0.33    0.32
  -7   2   5    0.22    0.31
   7  -2  -5   -0.37    0.36
  -7   2   5   -0.33    0.33
   7  -2  -4    0.83    0.43
  -7   2   4    0.14    0.36
   7  -2  -4    1.49    0.34
   7  -2  -4    1.09    0.40
  -7   2   4    0.12    0.29
   7  -2  -4    0.47    0.34
  -7   2   4    0.30    0.32
   7  -2  -4    0.94    0.42
   7  -2  -3   21.54    0.96
  -7   2   3   20.52    0.89
   7  -2  -3   22.76    0.74
   7  -2  -3   22.43    1.07
   7  -2  -3   21.25    1.02
  -7   2   3   20.77    0.79
   7  -2  -2   26.28    1.08
   7  -2  -2   36.55    0.97
  -7   2   2   23.91    0.96
   7  -2  -2   26.67    1.18
   7  -2  -2   25.82    1.15
   7  -2  -2   34.50    1.00
   7  -2  -1   82.27    1.92
   7  -2  -1   91.03    1.50
  -7   2   1   74.36    1.61
  -7   2   1   69.82    3.37
   7  -2  -1   80.16    2.07
   7  -2  -1   90.88    1.55
   7  -2   0   44.56    1.42
   7  -2   0   54.84    1.11
  -7   2   0   37.82    1.12
  -7   2   0   35.61    2.41
   7  -2   0   40.93    1.50
   7  -2   0   43.16    1.26
   7  -2   0   52.37    1.13
   7  -2   1  347.67    4.22
   7  -2   1  341.21    3.79
   7  -2   2  105.03    2.18
   7  -2   2  107.71    1.95
   7  -2   3   18.83    0.95
   7  -2   3   19.08    0.84
   7  -2   3   19.76    0.82
   7  -2   4  121.44    2.01
   7  -2   4  122.36    1.90
   7  -2   5   81.37    1.63
   7  -2   5   83.71    1.49
   7  -2   6    2.51    0.38
   7  -2   6    2.20    0.38
   7  -2   6    2.63    0.45
   7  -2   6    2.17    0.33
   7  -2   7   89.03    1.41
   7  -2   7   92.23    1.58
   7  -2   8    1.18    0.28
   7  -2   8    1.78    0.36
   7  -1  -9   26.77    0.77
  -7   1   9   27.22    0.74
   7  -1  -9   26.98    0.79
   7  -1  -8  124.31    1.50
   7  -1  -8  113.92    1.88
  -7   1   8  114.36    1.68
   7  -1  -8  112.99    1.88
  -7   1   8  103.66    1.61
  -7   1   7   22.91    0.83
   7  -1  -7   22.72    0.93
   7  -1  -7   21.85    0.69
   7  -1  -6  180.03    2.11
  -7   1   6  171.82    2.41
   7  -1  -6  188.30    2.19
   7  -1  -6  183.55    2.86
  -7   1   6  173.80    2.40
   7  -1  -6  179.73    2.82
   7  -1  -6  180.22    2.18
  -7   1   6  169.89    2.21
   7  -1  -5  483.59    4.09
  -7   1   5  453.91    4.53
   7  -1  -5  494.70    4.15
   7  -1  -5  477.37    5.22
  -7   1   5  462.20    4.42
   7  -1  -5  478.76    5.21
   7  -1  -5  493.01    4.20
  -7   1   5  444.95    4.11
   7  -1  -4   60.30    1.29
  -7   1   4   62.07    1.51
   7  -1  -4   65.44    1.29
   7  -1  -4   63.19    1.78
  -7   1   4   59.23    1.38
   7  -1  -4   63.99    1.79
  -7   1   4   60.75    1.39
   7  -1  -4   62.46    1.35
   7  -1  -3   31.04    0.91
  -7   1   3   29.51    1.08
  -7   1   3   28.04    2.11
   7  -1  -3   31.17    0.90
   7  -1  -3   31.09    1.31
   7  -1  -3   30.65    1.29
  -7   1   3   26.30    0.91
   7  -1  -3   29.47    0.93
   7  -1  -2   64.78    1.30
  -7   1   2   62.99    1.55
  -7   1   2   58.45    3.10
   7  -1  -2   65.05    1.27
   7  -1  -2   68.59    1.93
   7  -1  -2   65.71    1.88
   7  -1  -2   62.09    1.33
   7  -1  -1   27.14    1.16
   7  -1  -1   27.57    0.85
  -7   1   1   27.15    1.02
  -7   1   1   25.30    2.15
   7  -1  -1   27.28    1.26
   7  -1  -1   26.39    1.23
   7  -1  -1   26.98    0.87
   7  -1   0   43.88    1.47
   7  -1   0   43.11    1.02
  -7   1   0   42.43    1.23
  -7   1   0   41.27    2.67
   7  -1   0   44.58    1.62
   7  -1   0   44.50    1.24
   7  -1   0   43.81    1.05
   7  -1   0   43.59    1.51
   7  -1   1  190.46    3.10
  -7   1  -1  168.75    2.44
  -7   1  -1  172.09    5.33
   7  -1   1  180.20    3.30
   7  -1   1  185.39    2.61
   7  -1   2  179.76    3.00
   7  -1   2  176.58    2.53
   7  -1   3    0.09    0.38
  -7   1  -3    0.74    0.66
   7  -1   3    0.43    0.31
   7  -1   3    0.32    0.32
   7  -1   3    0.20    0.30
   7  -1   4  111.49    2.28
   7  -1   4  104.23    2.01
   7  -1   4  105.46    1.87
   7  -1   4  106.47    1.76
   7  -1   5  228.97    3.09
   7  -1   5  231.15    2.60
   7  -1   6   90.56    1.80
   7  -1   6   88.86    1.53
   7  -1   7   61.09    1.40
   7  -1   7   58.78    1.18
   7  -1   8   26.94    0.88
   7  -1   8   25.92    0.81
   7  -1   9  124.40    1.49
  -7   0   9    7.41    0.45
   7   0  -9    7.46    0.48
   7   0  -8    1.54    0.27
  -7   0   8    1.02    0.33
   7   0  -8    1.40    0.35
  -7   0   8    1.41    0.27
  -7   0   7    4.71    0.46
   7   0  -7    4.80    0.54
  -7   0   7    4.27    0.46
   7   0  -7    4.45    0.44
   7   0  -6    0.67    0.32
  -7   0   6    0.32    0.30
   7   0  -6    0.25    0.36
  -7   0   6    0.18    0.37
   7   0  -6    0.95    0.40
   7   0  -6   -0.23    0.39
  -7   0   5  114.08    2.01
   7   0  -5  122.77    1.79
  -7   0   5  112.44    1.95
   7   0  -5  117.72    2.40
   7   0  -5  118.11    1.80
   7   0  -5  112.20    2.29
   7   0  -4  277.30    2.97
  -7   0   4  285.68    3.47
   7   0  -4  287.82    3.80
   7   0  -4  284.73    3.00
  -7   0   4  271.26    3.22
   7   0  -4  284.15    4.00
   7   0  -4  284.41    3.07
   7   0  -4  286.05    3.94
   7   0  -3   16.38    0.70
  -7   0   3   16.97    0.86
  -7   0   3   13.96    1.53
   7   0  -3   17.64    0.95
   7   0  -3   17.81    0.72
   7   0  -3   18.20    1.06
  -7   0   3   16.00    0.75
   7   0  -3   16.10    1.00
   7   0  -3   15.68    0.71
   7   0  -3   16.58    0.96
   7   0  -2   89.64    1.56
  -7   0   2   92.35    1.91
  -7   0   2   87.45    3.78
   7   0  -2   96.96    2.25
   7   0  -2   97.65    2.35
   7   0  -2   93.03    2.30
   7   0  -2   86.29    1.61
   7   0  -2   95.70    2.29
   7   0  -1   29.39    0.88
  -7   0   1   31.09    1.10
  -7   0   1   27.46    2.20
   7   0  -1   31.99    1.33
   7   0  -1   31.46    1.37
   7   0  -1   29.44    1.34
   7   0  -1   30.39    0.92
   7   0  -1   31.10    1.35
   7   0   0  101.08    2.26
   7   0   0   92.95    1.54
  -7   0   0   97.90    1.91
  -7   0   0   94.65    4.02
   7   0   0  102.18    2.41
   7   0   0  102.31    2.44
   7   0   0   95.73    2.37
   7   0   0   96.00    1.60
   7   0   0  100.16    2.43
   7   0   1   13.06    0.85
  -7   0  -1   13.07    0.71
   7   0   1   13.78    0.94
  -7   0  -1   11.32    1.53
   7   0   1   13.26    0.96
   7   0   1   12.81    0.66
   7   0   1   13.21    0.94
   7   0   2   64.56    1.79
   7   0   2   61.39    1.92
  -7   0  -2   59.74    3.16
   7   0   2   59.70    1.90
   7   0   2   61.71    1.39
   7   0   3    0.89    0.44
  -7   0  -3    1.04    0.72
   7   0   3    0.84    0.42
   7   0   3    0.84    0.31
   7   0   4   66.90    1.79
  -7   0  -4   56.23    2.86
   7   0   4   63.09    1.64
  -7   0  -4   60.00    1.49
   7   0   5   12.86    0.84
  -7   0  -5   11.63    1.32
   7   0   5   12.20    0.77
  -7   0  -5   11.64    0.64
   7   0   6    3.63    0.51
  -7   0  -6    3.31    0.42
   7   0   6    3.31    0.38
   7   0   7    9.77    0.66
   7   0   7    8.91    0.49
   7   0   8   14.37    0.71
  -7   0  -8   13.62    0.60
   7   0   8   11.66    0.50
   7   0   8   12.38    0.62
   7   0   9   24.74    0.81
   7   0   9   22.47    0.66
   7   0  10  115.00    1.44
  -7  -1   9  110.92    1.42
   7   1  -9  109.15    1.57
  -7  -1   8   19.03    0.69
   7   1  -8   19.24    0.78
  -7  -1   8   17.00    0.59
   7   1  -8   17.02    0.70
  -7  -1   7    4.29    0.45
   7   1  -7    4.02    0.48
  -7  -1   7    3.86    0.40
   7   1  -7    4.06    0.45
  -7  -1   6   59.28    1.32
  -7  -1   6   57.95    1.24
  -7  -1   6   59.16    1.36
   7   1  -6   62.02    1.63
  -7  -1   6   61.05    1.45
   7   1  -6   59.41    1.59
  -7  -1   5    4.68    0.49
  -7  -1   5    5.47    0.52
  -7  -1   5    4.69    0.49
   7   1  -5    4.92    0.61
  -7  -1   5    6.41    0.60
   7   1  -5    5.07    0.57
  -7  -1   4    5.35    0.56
  -7  -1   4    4.58    0.86
  -7  -1   4    4.38    0.48
   7   1  -4    5.36    0.65
   7   1  -4    4.01    0.44
   7   1  -4    5.08    0.62
  -7  -1   3  398.26    4.29
   7   1  -3  408.69    4.97
   7   1  -3  394.70    4.95
   7   1  -3  397.63    3.83
   7   1  -3  402.36    5.06
  -7  -1   2  466.49    4.79
   7   1  -2  487.84    5.66
   7   1  -2  477.65    5.51
   7   1  -2  465.15    5.53
   7   1  -2  461.33    4.26
   7   1  -2  474.83    5.70
  -7  -1   1   72.30    1.68
  -7  -1   1   68.62    3.36
   7   1  -1   73.48    2.09
   7   1  -1   72.33    2.01
   7   1  -1   71.44    2.02
   7   1  -1   69.89    1.40
   7   1  -1   72.52    2.10
  -7  -1   0    1.06    0.40
  -7  -1   0    1.12    0.72
   7   1   0    0.83    0.39
   7   1   0    0.52    0.44
   7   1   0    0.47    0.42
   7   1   0    0.51    0.28
  -7  -1   0    0.57    0.38
   7   1   0    0.19    0.46
   7   1   1    5.28    0.62
  -7  -1  -1    5.53    0.51
  -7  -1  -1    4.72    1.08
   7   1   1    5.28    0.65
   7   1   1    6.08    0.70
   7   1   1    5.29    0.40
  -7  -1  -1    5.34    0.55
   7   1   1    5.26    0.66
   7   1   2    1.49    0.38
   7   1   2    1.22    0.44
  -7  -1  -2    1.02    0.32
  -7  -1  -2    0.90    0.80
   7   1   2    1.24    0.46
   7   1   2    1.12    0.49
  -7  -1  -2    1.06    0.33
   7   1   2    1.00    0.44
   7   1   3    0.37    0.35
   7   1   3    0.82    0.44
  -7  -1  -3    1.10    0.72
   7   1   3    0.94    0.48
  -7  -1  -3    0.70    0.34
   7   1   4    3.21    0.53
  -7  -1  -4    3.99    0.97
   7   1   4    3.13    0.59
  -7  -1  -4    3.16    0.45
   7   1   4    3.83    0.55
  -7  -1  -4    3.25    0.45
   7   1   5    0.36    0.38
  -7  -1  -5    0.52    0.63
   7   1   5    0.34    0.35
  -7  -1  -5    0.95    0.30
   7   1   5    0.58    0.37
   7   1   6    2.81    0.50
   7   1   6    2.76    0.48
  -7  -1  -6    2.85    0.41
  -7  -1  -6    3.25    0.37
  -7  -1  -6    2.98    0.36
   7   1   6    3.54    0.35
   7   1   7   15.43    0.83
  -7  -1  -7   14.18    0.71
   7   1   8   15.45    0.77
  -7  -1  -8   14.98    0.60
   7   1   9   11.53    0.62
  -7  -1  -9   11.04    0.48
   7   1   9   10.01    0.49
  -7  -1 -10    0.40    0.22
   7   1  10   -0.10    0.29
  -7  -2   9   82.93    1.16
   7   2  -9   83.84    1.23
   7   2  -9   81.75    1.20
  -7  -2   8   57.71    1.11
   7   2  -8   57.10    1.20
   7   2  -8   54.29    1.23
   7   2  -7    0.05    0.28
  -7  -2   7    0.01    0.30
   7   2  -7    0.08    0.28
  -7  -2   7   -0.10    0.25
  -7  -2   6   19.12    0.78
   7   2  -6   19.14    0.89
  -7  -2   6   18.75    0.79
   7   2  -6   19.20    0.93
  -7  -2   5   13.64    0.69
  -7  -2   5   12.67    0.66
  -7  -2   5   13.18    0.69
   7   2  -5   13.42    0.81
  -7  -2   5   13.81    0.75
   7   2  -5   12.33    0.82
   7   2  -4    0.31    0.36
  -7  -2   4   -0.23    0.36
  -7  -2   4    0.61    0.36
  -7  -2   4    0.18    0.34
   7   2  -4    0.27    0.39
  -7  -2   4    0.15    0.35
  -7  -2   3    4.04    0.51
  -7  -2   3    3.71    0.82
   7   2  -3    4.60    0.59
  -7  -2   3    4.04    0.55
  -7  -2   3    4.79    0.47
   7   2  -3    3.77    0.57
  -7  -2   3    4.45    0.58
   7   2  -3    3.86    0.59
  -7  -2   2  228.20    3.10
  -7  -2   2  210.16    5.59
   7   2  -2  229.64    3.53
  -7  -2   2  213.33    2.78
   7   2  -2  230.61    3.59
  -7  -2   2  233.07    3.33
   7   2  -2  234.73    3.79
  -7  -2   1   45.25    1.34
  -7  -2   1   42.82    2.61
   7   2  -1   48.73    1.71
   7   2  -1   46.58    1.56
   7   2  -1   45.75    1.59
  -7  -2   1   47.92    1.46
   7   2  -1   46.25    1.70
   7   2  -1   47.33    1.48
   7   2   0    0.90    0.45
   7   2   0    0.44    0.33
  -7  -2   0    0.54    0.38
  -7  -2   0    0.70    0.74
   7   2   0    0.87    0.46
   7   2   0    0.39    0.39
   7   2   0    0.67    0.45
  -7  -2   0    0.82    0.41
   7   2   1    1.47    0.39
   7   2   1    1.68    0.44
  -7  -2  -1    2.49    0.43
  -7  -2  -1    1.21    0.69
   7   2   1    1.91    0.54
   7   2   1    1.37    0.44
  -7  -2  -1    1.36    0.38
   7   2   1    1.66    0.50
   7   2   2    0.37    0.37
   7   2   2    0.06    0.34
   7   2   2    0.12    0.39
   7   2   2    0.21    0.36
  -7  -2  -2    0.09    0.41
  -7  -2  -2    0.14    0.31
   7   2   2   -0.02    0.44
   7   2   3   55.60    1.61
  -7  -2  -3   55.39    3.00
   7   2   3   58.74    1.93
   7   2   3   60.13    1.72
  -7  -2  -3   57.78    1.56
  -7  -2  -3   56.99    1.58
   7   2   3   59.90    1.79
   7   2   3   54.60    1.90
   7   2   4    6.79    0.62
   7   2   4    6.66    0.75
  -7  -2  -4    6.81    1.18
   7   2   4    7.42    0.67
  -7  -2  -4    6.40    0.57
  -7  -2  -4    6.83    0.60
   7   2   4    6.33    0.68
   7   2   5    1.17    0.43
   7   2   5    1.80    0.41
  -7  -2  -5    1.25    0.67
  -7  -2  -5    1.69    0.34
   7   2   5    0.80    0.39
  -7  -2  -5    1.54    0.37
  -7  -2  -5    1.31    0.34
   7   2   6    2.78    0.54
   7   2   6    3.56    0.46
   7   2   6    3.27    0.52
  -7  -2  -6    3.28    0.43
   7   2   6    3.64    0.47
  -7  -2  -6    3.62    0.41
  -7  -2  -6    3.20    0.40
   7   2   7    0.60    0.39
  -7  -2  -7    0.42    0.28
   7   2   7    0.40    0.32
  -7  -2  -7    0.42    0.25
  -7  -2  -7    0.68    0.24
   7   2   7    0.68    0.41
   7   2   8  133.39    2.16
   7   2   8  128.64    2.14
  -7  -2  -8  129.31    1.92
   7   2   9   59.34    1.28
  -7  -2  -9   58.76    1.16
  -7  -2  -9   55.94    1.03
  -7  -2  -9   54.66    1.03
   7   2  10    3.05    0.36
  -7  -2 -10    2.75    0.27
  -7  -3   8    3.05    0.32
   7   3  -8    3.63    0.32
   7   3  -8    2.89    0.30
   7   3  -8    3.29    0.38
   7   3  -7   37.50    0.98
  -7  -3   7   35.67    0.82
   7   3  -7   37.86    1.11
   7   3  -6    2.31    0.42
   7   3  -6    2.21    0.36
  -7  -3   6    2.27    0.35
  -7  -3   5    5.92    0.43
  -7  -3   5    6.23    0.51
   7   3  -5    6.06    0.54
  -7  -3   5    6.30    0.53
   7   3  -5    6.33    0.62
   7   3  -4    0.73    0.41
  -7  -3   4    0.99    0.33
  -7  -3   4    0.98    0.36
   7   3  -4    0.75    0.36
  -7  -3   4    1.28    0.39
   7   3  -3    3.19    0.56
   7   3  -3    4.21    0.51
  -7  -3   3    3.65    0.48
   7   3  -3    3.29    0.49
  -7  -3   3    3.36    0.42
  -7  -3   3    3.65    0.52
  -7  -3   2   47.48    2.51
   7   3  -2   51.61    1.52
  -7  -3   2   51.37    1.49
  -7  -3   2   46.32    1.21
   7   3  -2   51.44    1.57
  -7  -3   2   53.06    1.51
   7   3  -2   53.86    1.76
  -7  -3   1   31.12    2.15
   7   3  -1   33.80    1.25
  -7  -3   1   34.69    1.26
   7   3  -1   33.20    1.29
  -7  -3   1   34.35    1.25
   7   3  -1   34.11    1.44
   7   3  -1   34.52    1.29
  -7  -3   0    4.47    1.00
   7   3   0    3.95    0.64
   7   3   0    3.14    0.48
  -7  -3   0    4.83    0.61
   7   3   0    4.69    0.59
  -7  -3   0    3.74    0.53
   7   3   0    4.43    0.66
   7   3   0    3.86    0.52
   7   3   1  297.45    3.83
  -7  -3  -1  309.05    7.03
   7   3   1  322.89    4.62
   7   3   1  292.38    4.01
  -7  -3  -1  317.03    4.00
  -7  -3  -1  310.64    3.91
  -7  -3  -1  315.13    3.84
   7   3   1  308.63    4.58
   7   3   1  321.09    4.30
   7   3   2   14.71    0.82
  -7  -3  -2   13.61    1.53
   7   3   2   15.00    1.01
   7   3   2   14.12    0.85
  -7  -3  -2   15.66    0.89
  -7  -3  -2   15.70    0.88
  -7  -3  -2   14.29    0.78
   7   3   2   14.50    1.02
   7   3   2   15.80    0.96
   7   3   3  203.23    3.00
  -7  -3  -3  207.49    5.75
   7   3   3  212.50    3.69
  -7  -3  -3  205.79    3.01
  -7  -3  -3  206.81    3.08
  -7  -3  -3  196.08    2.75
   7   3   3  198.90    3.63
   7   3   3  209.86    3.50
   7   3   4  263.54    3.42
   7   3   4  271.34    4.22
  -7  -3  -4  260.46    6.41
  -7  -3  -4  258.00    3.32
   7   3   4  278.25    3.96
  -7  -3  -4  265.20    3.52
   7   3   4  267.12    3.98
   7   3   5   66.89    1.58
   7   3   5   68.17    2.05
  -7  -3  -5   66.37    3.11
   7   3   5   72.22    1.93
  -7  -3  -5   65.10    1.45
   7   3   5   72.26    1.77
  -7  -3  -5   70.50    1.63
  -7  -3  -5   71.24    1.66
   7   3   5   70.04    1.95
   7   3   6    3.24    0.55
   7   3   6    3.04    0.54
  -7  -3  -6    3.00    0.41
   7   3   6    3.89    0.51
  -7  -3  -6    3.30    0.42
  -7  -3  -6    2.82    0.39
   7   3   7   84.90    2.01
  -7  -3  -7   85.66    1.70
   7   3   7   84.82    1.84
  -7  -3  -7   83.28    1.55
   7   3   7   85.10    2.08
  -7  -3  -7   85.56    1.72
  -7  -3  -7   81.01    1.60
   7   3   8    5.54    0.58
   7   3   8    5.97    0.53
  -7  -3  -8    5.61    0.45
   7   3   8    6.08    0.55
  -7  -3  -8    5.48    0.47
   7   3   9   39.19    1.03
   7   3   9   38.70    1.09
  -7  -3  -9   41.08    1.00
  -7  -3  -9   39.49    0.92
  -7  -3  -9   38.20    0.90
  -7  -3 -10    0.63    0.29
   7   3  10    0.29    0.28
  -7  -3 -10    0.23    0.24
  -7  -4   7   80.29    1.22
   7   4  -7   85.44    1.49
  -7  -4   6    5.47    0.40
   7   4  -6    4.60    0.36
   7   4  -6    4.99    0.37
  -7  -4   6    5.21    0.38
   7   4  -6    5.42    0.49
  -7  -4   5   51.94    1.15
   7   4  -5   54.52    1.21
   7   4  -5   53.89    1.23
  -7  -4   5   59.20    1.28
   7   4  -5   59.13    1.53
   7   4  -4   -0.14    0.35
  -7  -4   4   -0.01    0.23
   7   4  -4    0.08    0.24
  -7  -4   4   -0.16    0.26
   7   4  -4   -0.01    0.26
  -7  -4   4    0.09    0.33
   7   4  -3    2.50    0.50
   7   4  -3    2.56    0.38
  -7  -4   3    2.56    0.40
   7   4  -3    2.87    0.41
  -7  -4   3    2.91    0.35
  -7  -4   3    3.02    0.48
   7   4  -2   81.06    1.73
  -7  -4   2   87.31    1.81
   7   4  -2   78.75    1.79
  -7  -4   2   78.54    1.61
  -7  -4   2   86.90    1.86
   7   4  -2   86.61    2.11
   7   4  -1    1.41    0.46
  -7  -4   1    0.70    0.60
   7   4  -1    1.32    0.34
  -7  -4   1    1.28    0.41
   7   4  -1    1.41    0.39
  -7  -4   1    0.80    0.31
  -7  -4   1    1.21    0.43
   7   4   0    2.82    0.55
   7   4   0    2.31    0.45
  -7  -4   0    2.69    0.74
   7   4   0    2.79    0.55
   7   4   0    2.19    0.38
  -7  -4   0    2.29    0.47
  -7  -4   0    2.34    0.40
  -7  -4   0    3.11    0.50
   7   4   1    1.13    0.41
   7   4   1    0.90    0.30
  -7  -4  -1    0.69    0.60
   7   4   1    1.59    0.48
   7   4   1    0.92    0.32
  -7  -4  -1    1.25    0.45
  -7  -4  -1    0.93    0.33
  -7  -4  -1    1.13    0.39
   7   4   1    1.06    0.47
   7   4   2    4.10    0.43
  -7  -4  -2    4.24    0.92
   7   4   2    5.07    0.67
  -7  -4  -2    4.62    0.57
  -7  -4  -2    4.50    0.53
  -7  -4  -2    4.85    0.52
  -7  -4  -2    4.32    0.49
   7   4   2    4.25    0.58
   7   4   2    4.40    0.65
   7   4   3  156.26    2.38
  -7  -4  -3  155.73    4.84
   7   4   3  163.09    3.09
  -7  -4  -3  163.08    2.59
  -7  -4  -3  165.72    2.65
  -7  -4  -3  161.48    2.62
  -7  -4  -3  150.73    2.39
   7   4   3  154.28    3.07
   7   4   3  162.20    2.98
   7   4   4   31.32    1.00
  -7  -4  -4   30.46    2.15
   7   4   4   30.05    1.33
  -7  -4  -4   30.41    1.07
  -7  -4  -4   29.69    1.03
  -7  -4  -4   31.69    1.14
  -7  -4  -4   31.16    1.12
   7   4   4   31.47    1.30
   7   4   5  103.76    2.41
  -7  -4  -5  100.67    1.81
   7   4   5  109.86    2.36
  -7  -4  -5  103.12    1.90
  -7  -4  -5  104.36    1.99
  -7  -4  -5  104.52    2.01
   7   4   5  108.17    2.39
   7   4   6   40.41    1.41
  -7  -4  -6   39.20    1.13
   7   4   6   42.10    1.34
  -7  -4  -6   39.84    1.15
  -7  -4  -6   41.34    1.24
  -7  -4  -6   39.18    1.18
   7   4   6   40.29    1.44
   7   4   7   11.42    0.79
  -7  -4  -7   11.21    0.60
   7   4   7   11.13    0.71
  -7  -4  -7   11.48    0.60
  -7  -4  -7   12.07    0.68
  -7  -4  -7   10.22    0.59
   7   4   7   10.23    0.79
   7   4   8   59.45    1.55
  -7  -4  -8   56.09    1.21
   7   4   8   58.71    1.43
  -7  -4  -8   56.68    1.13
   7   4   8   55.33    1.55
  -7  -4  -8   60.73    1.31
  -7  -4  -8   58.73    1.28
  -7  -4  -8   59.94    1.29
   7   4   9    0.04    0.29
   7   4   9    0.47    0.34
  -7  -4  -9   -0.04    0.27
  -7  -4  -9   -0.03    0.23
  -7  -4  -9   -0.02    0.23
  -7  -4 -10   37.86    0.82
  -7  -4 -10   38.15    0.82
  -7  -5   6   60.62    1.00
   7   5  -6   65.65    1.24
  -7  -5   5    8.98    0.44
  -7  -5   5   10.07    0.49
   7   5  -5    9.50    0.57
  -7  -5   4   10.79    0.50
  -7  -5   4   12.36    0.60
   7   5  -4   12.11    0.69
  -7  -5   3    4.76    0.48
   7   5  -3    4.78    0.53
  -7  -5   2   32.16    0.89
  -7  -5   2   32.46    1.08
   7   5  -2   32.65    1.20
   7   5  -1    0.39    0.36
   7   5  -1    0.38    0.39
  -7  -5   1    0.11    0.36
  -7  -5   1    0.20    0.26
  -7  -5   1    0.11    0.22
  -7  -5   1    0.39    0.40
   7   5   0   13.83    0.87
  -7  -5   0   13.17    0.76
  -7  -5   0   13.03    0.69
  -7  -5   0   12.97    0.66
  -7  -5   0   13.32    0.77
   7   5   0   13.49    0.85
   7   5   1   17.58    0.97
  -7  -5  -1   18.47    0.89
  -7  -5  -1   19.43    0.85
  -7  -5  -1   17.41    0.79
  -7  -5  -1   18.97    0.88
   7   5   1   17.56    0.99
   7   5   1   18.57    0.98
   7   5   2   20.19    1.05
  -7  -5  -2   19.80    0.90
  -7  -5  -2   20.13    0.89
  -7  -5  -2   19.32    0.85
  -7  -5  -2   18.58    0.86
   7   5   2   18.09    1.01
   7   5   2   19.85    1.02
   7   5   3   30.22    1.25
  -7  -5  -3   29.75    1.05
  -7  -5  -3   30.02    1.07
  -7  -5  -3   30.20    1.04
  -7  -5  -3   29.56    1.05
  -7  -5  -3   29.76    1.02
   7   5   3   30.51    1.25
   7   5   4    1.52    0.48
   7   5   4    1.22    0.42
  -7  -5  -4    1.72    0.44
  -7  -5  -4    1.46    0.39
  -7  -5  -4    1.08    0.34
  -7  -5  -4    1.45    0.31
   7   5   5   99.53    2.19
   7   5   5  110.49    2.27
  -7  -5  -5  104.50    1.93
  -7  -5  -5  105.30    1.93
  -7  -5  -5  102.25    1.92
   7   5   5  105.55    2.30
   7   5   6   13.21    0.82
  -7  -5  -6   12.91    0.68
  -7  -5  -6   12.37    0.68
  -7  -5  -6   12.02    0.66
   7   5   6   12.65    0.83
   7   5   7    1.41    0.45
   7   5   7    1.48    0.44
   7   5   7    1.20    0.38
  -7  -5  -7    1.70    0.33
  -7  -5  -7    1.52    0.33
  -7  -5  -7    1.20    0.33
  -7  -5  -7    1.90    0.37
   7   5   8   11.06    0.70
   7   5   8   11.70    0.66
  -7  -5  -8   10.70    0.51
   7   5   8   10.09    0.67
  -7  -5  -8   11.84    0.58
  -7  -5  -8   12.25    0.59
  -7  -5  -8   11.86    0.58
  -7  -5  -9   17.32    0.58
   7   5   9   15.51    0.75
   7   5   9   15.16    0.57
   7   5   9   16.62    0.71
  -7  -5  -9   17.37    0.62
  -7  -5  -9   17.16    0.60
  -7  -5 -10    9.92    0.42
  -7  -6   5   40.48    0.83
   7   6  -5   40.67    0.91
   7   6  -4    1.75    0.34
  -7  -6   4    1.62    0.28
   7   6  -4    1.47    0.28
   7   6  -3   18.84    0.79
  -7  -6   3   20.07    0.72
   7   6  -3   18.19    0.73
   7   6  -2    0.60    0.30
  -7  -6   2    0.35    0.31
   7   6  -2    0.37    0.26
  -7  -6   1    7.28    0.45
   7   6  -1    8.12    0.61
  -7  -6   1    8.54    0.59
   7   6  -1    8.03    0.57
   7   6   0    0.66    0.40
   7   6   0    0.16    0.29
  -7  -6   0    0.06    0.24
  -7  -6   0    0.33    0.35
   7   6   0    0.12    0.28
   7   6   1   16.37    0.84
  -7  -6  -1   15.72    0.70
  -7  -6  -1   14.56    0.64
  -7  -6  -1   16.66    0.79
   7   6   1   14.99    0.79
   7   6   1   16.56    0.86
   7   6   2   12.46    0.75
  -7  -6  -2   12.31    0.65
  -7  -6  -2   11.80    0.56
  -7  -6  -2   11.88    0.61
  -7  -6  -2   12.01    0.67
  -7  -6  -2   11.79    0.56
   7   6   2   11.97    0.77
   7   6   3   13.89    0.77
  -7  -6  -3   15.35    0.73
  -7  -6  -3   14.84    0.66
  -7  -6  -3   13.99    0.67
  -7  -6  -3   14.39    0.69
  -7  -6  -3   14.38    0.65
   7   6   3   14.62    0.84
   7   6   4   42.52    1.31
  -7  -6  -4   46.52    1.21
  -7  -6  -4   43.47    1.00
  -7  -6  -4   43.54    1.12
  -7  -6  -4   44.39    1.17
  -7  -6  -4   43.93    1.09
  -7  -6  -4   44.48    1.15
   7   6   4   46.15    1.40
  -7  -6  -5   81.07    1.58
  -7  -6  -5   77.80    1.37
  -7  -6  -5   78.54    1.50
  -7  -6  -5   79.28    1.53
   7   6   5   78.83    1.80
   7   6   6   15.17    0.80
  -7  -6  -6   15.33    0.68
  -7  -6  -6   13.54    0.58
  -7  -6  -6   14.32    0.65
   7   6   6   13.82    0.78
  -7  -6  -6   14.63    0.66
   7   6   7  146.19    2.28
   7   6   7  149.12    2.18
  -7  -6  -7  142.44    1.93
  -7  -6  -7  139.67    1.83
  -7  -6  -7  138.80    1.94
   7   6   7  138.89    2.23
  -7  -6  -7  144.06    1.97
   7   6   8   42.08    1.12
   7   6   8   42.78    1.07
  -7  -6  -8   41.49    0.89
   7   6   8   39.56    1.09
  -7  -6  -8   41.58    0.90
  -7  -6  -8   42.51    0.97
   7   6   9    7.18    0.46
  -7  -6  -9    7.39    0.38
  -7  -6  -9    7.21    0.40
  -7  -7   3   21.37    0.57
   7   7  -3   21.40    0.67
  -7  -7   2    5.55    0.33
   7   7  -2    5.76    0.39
  -7  -7   2    6.51    0.43
   7   7  -2    6.45    0.48
   7   7  -1    7.43    0.46
  -7  -7   1    7.47    0.49
   7   7  -1    7.03    0.51
   7   7   0    2.00    0.38
   7   7   0    1.91    0.30
  -7  -7   0    2.39    0.38
   7   7   1   29.65    0.90
  -7  -7  -1   30.97    0.78
  -7  -7  -1   32.08    0.94
   7   7   1   31.97    1.02
   7   7   2  295.10    3.16
  -7  -7  -2  302.34    2.97
  -7  -7  -2  304.58    3.15
   7   7   2  307.25    3.47
  -7  -7  -3   73.77    1.35
  -7  -7  -3   71.93    1.35
   7   7   3   70.73    1.53
  -7  -7  -4   24.26    0.78
  -7  -7  -4   23.18    0.71
  -7  -7  -4   22.66    0.69
   7   7   4   24.26    0.91
   7   7   5   10.61    0.64
  -7  -7  -5   10.67    0.55
   7   7   5    9.66    0.60
  -7  -7  -5    9.90    0.49
   7   7   6    1.52    0.34
   7   7   6    1.19    0.37
  -7  -7  -6    2.32    0.34
  -7  -7  -6    1.40    0.29
   7   7   7    8.05    0.53
  -7  -7  -7    8.14    0.44
   7   7   7    7.84    0.51
   7   7   7    7.58    0.48
  -7  -7  -7    7.67    0.44
   7   7   8   12.65    0.53
  -7  -8   0   73.46    1.11
   7   8   0   72.50    1.19
  -7  -8  -1   92.51    1.33
   7   8   1   93.12    1.42
  -7  -8  -2    9.04    0.47
   7   8   2    9.41    0.50
  -7  -8  -3  213.94    2.13
   7   8   3  220.88    2.35
  -7  -8  -4  210.91    2.05
   7   8   4  211.40    2.25
   7   8   5    2.56    0.36
  -7  -8  -5    2.81    0.29
   8  -4  -2    0.85    0.24
   8  -4  -2    0.95    0.26
   8  -4  -1   94.81    1.16
   8  -4  -1   86.31    1.13
   8  -4   0   10.85    0.42
   8  -3  -5   11.16    0.36
  -8   3   5    9.56    0.43
   8  -3  -4    8.06    0.35
  -8   3   4    6.22    0.40
   8  -3  -3   17.81    0.52
   8  -3  -3   18.48    0.48
   8  -3  -2   65.41    0.90
  -8   3   2   62.40    1.01
   8  -3  -1   98.23    1.33
   8  -3   0   15.71    0.54
   8  -3   0   16.13    0.55
   8  -3   1   20.01    0.58
   8  -3   2    1.91    0.30
   8  -3   2    2.11    0.27
   8  -3   3   51.44    0.87
  -8   2   6    6.97    0.38
  -8   2   5    7.97    0.46
   8  -2  -4    1.51    0.25
   8  -2  -4    1.31    0.25
  -8   2   4    1.35    0.30
   8  -2  -3   72.25    1.26
   8  -2  -3   73.05    1.06
  -8   2   3   69.38    1.27
   8  -2  -2    2.48    0.33
   8  -2  -2    2.52    0.28
   8  -2  -2    2.49    0.27
  -8   2   2    2.61    0.33
   8  -2  -1    0.04    0.25
   8  -2  -1    0.33    0.22
   8  -2  -1   -0.54    0.20
  -8   2   1    0.18    0.22
   8  -2   0    1.51    0.30
   8  -2   0    1.42    0.26
   8  -2   1    8.57    0.52
   8  -2   1    8.64    0.44
   8  -2   1    7.19    0.39
   8  -2   1    8.07    0.41
  -8   2  -2   15.36    0.55
   8  -2   2   16.20    0.57
   8  -2   3    0.69    0.28
   8  -2   3    1.09    0.22
   8  -2   4   97.16    1.28
   8  -2   4   93.63    1.33
   8  -2   5   78.01    1.03
   8  -2   5   79.12    1.11
   8  -1  -6   31.26    0.80
  -8   1   6   30.49    0.75
   8  -1  -5    7.93    0.44
   8  -1  -5    8.36    0.52
  -8   1   5    7.31    0.42
  -8   1   5    8.01    0.48
   8  -1  -4  332.16    3.22
   8  -1  -4  326.64    3.47
  -8   1   4  332.56    3.21
   8  -1  -3  118.21    1.84
   8  -1  -3  117.15    2.02
   8  -1  -3  117.29    1.46
  -8   1   3  115.71    1.77
   8  -1  -2   38.97    1.08
   8  -1  -2   37.36    1.18
   8  -1  -2   35.96    0.78
  -8   1   2   37.54    0.99
   8  -1  -1   22.54    0.60
  -8   1   1   22.33    0.76
   8  -1   0   33.22    1.04
   8  -1   0   31.45    0.75
   8  -1   1   11.96    0.66
   8  -1   1   11.68    0.48
  -8   1  -1   10.17    0.55
   8  -1   2  121.31    1.97
  -8   1  -2  103.58    1.62
   8  -1   3   83.97    1.57
  -8   1  -3   63.07    1.09
   8  -1   4   23.05    0.64
   8  -1   5   37.99    0.75
   8  -1   5   40.44    0.91
   8  -1   6   19.82    0.61
   8   0  -6   51.42    0.97
   8   0  -6   52.01    1.07
   8   0  -6   50.28    1.06
  -8   0   6   49.66    0.95
   8   0  -5  247.74    2.60
   8   0  -5  254.60    2.81
  -8   0   5  227.81    2.28
  -8   0   5  218.30    2.05
   8   0  -5  247.84    2.78
  -8   0   5  248.63    2.56
   8   0  -4  334.30    3.36
   8   0  -4  334.30    3.59
  -8   0   4  327.61    3.18
   8   0  -4  328.46    3.57
  -8   0   4  340.89    3.29
   8   0  -3   62.29    1.38
   8   0  -3   62.67    1.50
  -8   0   3   62.14    1.32
  -8   0   3   62.74    1.32
   8   0  -2  150.91    2.27
   8   0  -2  145.37    2.42
  -8   0   2  144.18    2.09
   8   0  -1    7.52    0.58
   8   0  -1    6.44    0.60
  -8   0   1    6.94    0.50
   8   0   0   -0.20    0.32
  -8   0   0    0.18    0.25
   8   0   1    2.96    0.43
  -8   0  -1    3.61    0.45
  -8   0  -1    2.60    0.36
   8   0   2    0.58    0.32
  -8   0  -2    0.71    0.29
  -8   0  -2    0.68    0.26
   8   0   3   92.43    1.73
  -8   0  -3   77.22    1.35
   8   0   4    4.57    0.36
  -8   0  -4    3.99    0.34
   8   0   5   27.59    0.74
   8   0   5   28.10    0.64
   8   0   6    6.89    0.40
   8   0   6    6.82    0.46
   8   0   7    9.30    0.42
   8   1  -6   -0.13    0.25
   8   1  -6    0.19    0.27
   8   1  -6    0.13    0.28
  -8  -1   6   -0.10    0.24
   8   1  -5   24.02    0.81
  -8  -1   5   20.35    0.58
   8   1  -5   23.44    0.82
  -8  -1   5   23.73    0.73
   8   1  -5   20.89    0.71
   8   1  -4  104.98    1.72
   8   1  -4  100.98    1.60
   8   1  -4  108.10    1.85
  -8  -1   4  103.81    1.56
   8   1  -4  105.95    1.85
  -8  -1   4  110.18    1.68
   8   1  -4  102.66    1.77
   8   1  -3   57.46    1.32
   8   1  -3   57.82    1.31
   8   1  -3   56.47    1.40
  -8  -1   3   57.93    1.25
   8   1  -3   56.37    1.42
  -8  -1   3   59.22    1.28
   8   1  -3   57.77    1.40
   8   1  -2   70.94    1.53
   8   1  -2   68.88    1.54
   8   1  -2   71.44    1.65
  -8  -1   2   72.54    1.48
  -8  -1   2   69.07    1.42
   8   1  -2   69.23    1.63
   8   1  -1    1.05    0.35
   8   1  -1    0.79    0.33
   8   1  -1    0.89    0.36
  -8  -1   1    1.94    0.40
  -8  -1   1    0.95    0.31
   8   1  -1    0.77    0.33
   8   1   0    3.90    0.47
   8   1   0    3.08    0.45
   8   1   0    3.57    0.49
  -8  -1   0    3.34    0.46
  -8  -1   0    2.95    0.39
  -8  -1   0    3.18    0.37
   8   1   1   -0.03    0.31
   8   1   1    0.03    0.31
  -8  -1  -1    0.55    0.33
  -8  -1  -1    0.08    0.26
  -8  -1  -1    0.01    0.25
  -8  -1  -2   52.13    1.24
  -8  -1  -2   50.93    1.25
   8   1   3    7.60    0.56
   8   1   3    6.56    0.44
  -8  -1  -3    6.85    0.46
  -8  -1  -3    6.79    0.48
   8   1   4    9.14    0.58
   8   1   4    8.37    0.48
  -8  -1  -4    7.71    0.41
  -8  -1  -4    8.49    0.49
   8   1   4    8.88    0.39
   8   1   5    0.19    0.25
  -8  -1  -5    0.10    0.18
   8   1   6   85.38    1.35
  -8  -1  -6   82.12    1.27
   8   1   7   22.17    0.64
  -8  -1  -7   22.79    0.60
   8   1   7   23.17    0.63
   8   2  -6   14.67    0.50
   8   2  -6   14.80    0.51
   8   2  -5   15.97    0.57
   8   2  -5   17.56    0.64
   8   2  -5   17.09    0.66
  -8  -2   5   16.85    0.60
   8   2  -5   16.70    0.66
   8   2  -4    7.70    0.50
   8   2  -4    7.85    0.51
  -8  -2   4    7.04    0.41
   8   2  -4    7.79    0.52
  -8  -2   4    7.21    0.48
   8   2  -4    7.98    0.54
   8   2  -3    2.70    0.37
   8   2  -3    3.08    0.39
   8   2  -3    3.09    0.40
  -8  -2   3    2.85    0.36
  -8  -2   3    2.72    0.39
   8   2  -3    2.98    0.43
   8   2  -2   55.25    1.29
   8   2  -2   59.50    1.46
   8   2  -2   55.50    1.37
  -8  -2   2   58.62    1.29
  -8  -2   2   58.62    1.29
   8   2  -2   57.95    1.51
   8   2  -1   18.18    0.78
   8   2  -1   19.16    0.90
   8   2  -1   18.06    0.83
  -8  -2   1   19.29    0.80
  -8  -2   1   17.99    0.75
  -8  -2   1   18.71    0.76
   8   2  -1   18.66    0.91
   8   2   0   12.84    0.68
   8   2   0   13.04    0.77
   8   2   0   12.32    0.71
  -8  -2   0   13.34    0.70
  -8  -2   0   11.58    0.63
  -8  -2   0   12.38    0.62
   8   2   0   12.40    0.79
   8   2   1   19.70    0.82
   8   2   1   19.73    0.96
  -8  -2  -1   19.10    0.80
  -8  -2  -1   19.53    0.80
  -8  -2  -1   18.68    0.72
   8   2   2   63.33    1.42
   8   2   2   62.34    1.66
  -8  -2  -2   62.86    1.36
  -8  -2  -2   61.13    1.38
   8   2   3   22.49    0.84
  -8  -2  -3   21.27    0.75
  -8  -2  -3   22.57    0.82
   8   2   3   21.73    0.83
  -8  -2  -3   21.16    0.80
   8   2   4   14.68    0.67
   8   2   4   13.99    0.63
  -8  -2  -4   13.59    0.55
  -8  -2  -4   15.45    0.65
   8   2   4   13.95    0.67
  -8  -2  -4   14.19    0.63
   8   2   5    5.59    0.44
  -8  -2  -5    5.48    0.39
   8   2   6   11.62    0.55
  -8  -2  -6   12.73    0.54
   8   2   7   60.17    1.06
  -8  -2  -7   61.13    1.04
   8   3  -5   14.64    0.49
   8   3  -5   14.71    0.55
  -8  -3   5   15.38    0.51
   8   3  -5   14.89    0.60
   8   3  -4   10.71    0.48
   8   3  -4   11.03    0.57
   8   3  -4   10.44    0.48
  -8  -3   4   11.34    0.53
   8   3  -4   10.84    0.60
   8   3  -3   14.96    0.60
   8   3  -3   15.35    0.71
   8   3  -3   14.41    0.60
  -8  -3   3   14.13    0.57
  -8  -3   3   14.24    0.51
  -8  -3   3   14.95    0.63
   8   3  -3   15.36    0.75
   8   3  -2    1.16    0.29
   8   3  -2    1.04    0.35
   8   3  -2    0.68    0.26
  -8  -3   2    1.14    0.30
  -8  -3   2    1.23    0.28
  -8  -3   2    0.41    0.31
   8   3  -2    0.92    0.36
   8   3  -1   13.61    0.63
   8   3  -1   14.68    0.78
   8   3  -1   12.92    0.64
  -8  -3   1   14.02    0.66
  -8  -3   1   14.07    0.63
  -8  -3   1   12.98    0.60
  -8  -3   1   13.57    0.65
   8   3  -1   13.83    0.79
   8   3   0   22.41    0.80
   8   3   0   23.81    1.00
  -8  -3   0   23.54    0.84
  -8  -3   0   24.53    0.84
  -8  -3   0   21.54    0.79
  -8  -3   0   22.53    0.80
   8   3   0   22.02    0.79
   8   3   0   23.63    1.02
   8   3   1    8.19    0.52
   8   3   1    8.17    0.65
  -8  -3  -1    8.20    0.55
  -8  -3  -1    8.91    0.57
  -8  -3  -1    7.26    0.50
  -8  -3  -1    7.89    0.50
   8   3   1    7.85    0.52
   8   3   1    8.12    0.65
   8   3   2   27.73    0.87
   8   3   2   27.25    1.09
  -8  -3  -2   27.14    0.88
  -8  -3  -2   27.72    0.91
  -8  -3  -2   26.03    0.88
   8   3   2   27.19    0.96
  -8  -3  -2   25.27    0.77
   8   3   3   33.68    0.93
   8   3   3   32.78    1.19
  -8  -3  -3   32.16    0.91
  -8  -3  -3   33.96    0.98
  -8  -3  -3   31.91    0.95
   8   3   3   32.15    1.04
   8   3   4    2.36    0.38
   8   3   4    2.16    0.29
  -8  -3  -4    1.72    0.27
  -8  -3  -4    2.59    0.35
  -8  -3  -4    2.01    0.30
   8   3   5    6.47    0.43
  -8  -3  -5    7.56    0.45
   8   3   5    6.99    0.52
  -8  -3  -5    7.98    0.50
   8   3   6    1.52    0.34
  -8  -3  -6    1.71    0.25
  -8  -3  -6    1.84    0.31
   8   3   7   27.52    0.73
  -8  -3  -7   29.64    0.73
  -8  -3  -7   27.82    0.68
  -8  -3  -7   28.89    0.70
   8   4  -4  221.97    2.35
  -8  -4   4  214.54    2.08
   8   4  -4  215.80    2.37
   8   4  -3   71.17    1.38
  -8  -4   3   72.68    1.22
   8   4  -3   70.64    1.40
   8   4  -2   15.51    0.53
   8   4  -2   16.14    0.74
  -8  -4   2   14.54    0.49
  -8  -4   2   16.57    0.64
   8   4  -2   15.42    0.73
   8   4  -1    2.24    0.27
   8   4  -1    2.89    0.43
  -8  -4   1    2.17    0.34
  -8  -4   1    2.69    0.31
  -8  -4   1    2.70    0.36
   8   4  -1    2.42    0.31
   8   4  -1    2.95    0.44
   8   4   0   11.94    0.50
   8   4   0   12.60    0.71
  -8  -4   0   12.77    0.60
  -8  -4   0   12.50    0.57
  -8  -4   0   11.02    0.45
  -8  -4   0   12.83    0.60
   8   4   0   12.06    0.60
   8   4   0   12.59    0.72
   8   4   1   23.53    0.69
   8   4   1   23.34    0.95
  -8  -4  -1   24.84    0.82
  -8  -4  -1   24.11    0.80
  -8  -4  -1   23.18    0.71
  -8  -4  -1   22.98    0.76
  -8  -4  -1   23.82    0.77
   8   4   1   26.60    0.89
   8   4   2   22.11    0.65
   8   4   2   23.02    0.96
   8   4   2   22.20    0.75
  -8  -4  -2   22.82    0.77
  -8  -4  -2   23.59    0.80
  -8  -4  -2   23.11    0.74
  -8  -4  -2   22.83    0.77
  -8  -4  -2   21.99    0.70
   8   4   2   23.20    0.87
   8   4   3   30.71    1.09
   8   4   3   31.64    0.91
  -8  -4  -3   33.13    0.92
  -8  -4  -3   32.40    0.89
  -8  -4  -3   31.88    0.90
   8   4   3   32.42    1.03
   8   4   4   14.41    0.64
  -8  -4  -4   15.68    0.63
  -8  -4  -4   15.10    0.63
   8   4   4   15.36    0.72
   8   4   5    0.88    0.30
  -8  -4  -5    0.71    0.27
  -8  -4  -5    1.32    0.31
   8   4   5    0.52    0.31
   8   4   6    0.33    0.29
   8   4   6    0.40    0.28
  -8  -4  -6    0.66    0.26
  -8  -4  -6    0.72    0.24
  -8  -4  -6    0.64    0.27
  -8  -4  -6    0.45    0.27
  -8  -4  -7    6.45    0.36
  -8  -4  -7    5.98    0.36
  -8  -4  -7    6.19    0.36
   8   5  -3   11.75    0.50
   8   5  -2   81.18    1.38
  -8  -5   2   81.68    1.23
   8   5  -2   78.24    1.36
   8   5  -1   55.08    1.22
  -8  -5   1   53.54    1.05
   8   5  -1   53.13    1.19
   8   5  -1   52.54    1.04
   8   5   0   41.64    1.10
  -8  -5   0   39.55    0.83
  -8  -5   0   41.67    0.94
   8   5   0   41.78    1.00
   8   5   1   16.17    0.73
   8   5   1   15.50    0.58
  -8  -5  -1   16.14    0.59
  -8  -5  -1   16.19    0.59
   8   5   1   16.23    0.68
   8   5   2   12.92    0.67
   8   5   2   13.35    0.58
  -8  -5  -2   13.84    0.57
  -8  -5  -2   12.21    0.45
  -8  -5  -2   13.90    0.53
   8   5   2   13.53    0.64
   8   5   3   10.26    0.59
   8   5   3   10.17    0.53
  -8  -5  -3   10.86    0.52
  -8  -5  -3    9.77    0.44
   8   5   3   10.78    0.59
  -8  -5  -3    9.55    0.43
   8   5   4   43.81    1.02
  -8  -5  -4   46.64    0.98
  -8  -5  -4   44.82    0.90
   8   5   4   45.72    1.12
  -8  -5  -4   44.42    0.89
   8   5   5  169.72    2.04
  -8  -5  -5  171.55    1.88
   8   5   5  175.15    2.20
  -8  -5  -5  171.50    1.86
   8   5   6   35.35    0.88
  -8  -5  -6   36.64    0.75
  -8  -5  -6   37.45    0.76
  -8  -6   0   67.26    1.02
   8   6   1    2.26    0.32
  -8  -6  -1    2.05    0.27
  -8  -6  -2    4.61    0.31
   8   6   2    4.87    0.40
  -8  -6  -3   12.92    0.47
   8   6   3   13.13    0.57
  -8  -6  -4   17.16    0.52
   8   6   4   16.84    0.61
   0   0   0    0.00    0.00
;
_shelx_hkl_checksum   28495

